[TITLE]
;;Project Title/Notes

[OPTIONS]
;;Option             Value
FLOW_UNITS           CFS
INFILTRATION         GREEN_AMPT
FLOW_ROUTING         DYNWAVE
LINK_OFFSETS         DEPTH
MIN_SLOPE            0
ALLOW_PONDING        NO
SKIP_STEADY_STATE    NO

START_DATE           01/01/2025
START_TIME           00:00:00
REPORT_START_DATE    01/01/2025
REPORT_START_TIME    00:00:00
END_DATE             01/01/2025
END_TIME             23:45:00
SWEEP_START          01/01
SWEEP_END            12/31
DRY_DAYS             0
REPORT_STEP          00:00:05
WET_STEP             00:00:05
DRY_STEP             00:00:05
ROUTING_STEP         5
RULE_STEP            00:00:00

INERTIAL_DAMPING     PARTIAL
NORMAL_FLOW_LIMITED  BOTH
FORCE_MAIN_EQUATION  H-W
VARIABLE_STEP        0
LENGTHENING_STEP     0
MIN_SURFAREA         0
MAX_TRIALS           8
HEAD_TOLERANCE       0.005
SYS_FLOW_TOL         5
LAT_FLOW_TOL         5
MINIMUM_STEP         0.5
THREADS              4
IGNORE_GROUNDWATER   YES

[EVAPORATION]
;;Data Source    Parameters
;;-------------- ----------------
TEMPERATURE
RECOVERY     soil_recovery_pattern_1
DRY_ONLY         NO

[TEMPERATURE]
FILE         "C:\Users\hosseinahmadi\Desktop\Web User Interface\SWMMSWAT+APP\Temp24.DAT" *          C10
WINDSPEED    FILE
SNOWMELT               34 0.5 0.6 0.0 50.0 0.0
ADC          IMPERVIOUS 1.0 1.0 1.0 1.0 1.0 1.0 1.0 1.0 1.0 1.0
ADC          PERVIOUS   1.0 1.0 1.0 1.0 1.0 1.0 1.0 1.0 1.0 1.0

[RAINGAGES]
;;Name           Format    Interval SCF      Source    
;;-------------- --------- -------- -------- ----------
SCS_Type_II_3.665in INTENSITY 0:15     1.0      TIMESERIES SCS_Type_II_3.665in

[SUBCATCHMENTS]
;;Name           Rain Gage        Outlet           Area     %Imperv  Width    %Slope   CurbLen  SnowPack        
;;-------------- ---------------- ---------------- -------- -------- -------- -------- -------- ----------------
11               SCS_Type_II_3.665in 4p            224.901772 13.65  2886.456 1.4      0                        
12               SCS_Type_II_3.665in 1p            25.580722 21.525  798.947  0.579    0                        
13               SCS_Type_II_3.665in 638           9.704137 28.875   908.07   0.46     0                        
15               SCS_Type_II_3.665in J8            58.297975 25.2    3768.03  0.6      0                        
16               SCS_Type_II_3.665in J10           89.667946 16.8    2294.825 0.98     0                        
17               SCS_Type_II_3.665in 29p           52.390024 11.55   2601.193 1.74     0                        
18               SCS_Type_II_3.665in 152p          237.204873 26.25  2652.805 0.78     0                        
2                SCS_Type_II_3.665in 14p           52.798459 19.425  2441.244 1.12     0                        
21               SCS_Type_II_3.665in 153p          104.859539 15.225 2170.015 0.86     0                        
22               SCS_Type_II_3.665in 31p           17.450178 7.875   2014.4   1.18     0                        
23               SCS_Type_II_3.665in J3            202.144728 26.25  2236.534 0.73     0                        
24               SCS_Type_II_3.665in 30p           42.960634 6.3     4568.972 1.76     0                        
27               SCS_Type_II_3.665in 3702          250.992993 18.375 3268.405 0.99     0                        
38               SCS_Type_II_3.665in 32p           17.261327 3.675   962.218  1.8      0                        
39               SCS_Type_II_3.665in 18p           3.292711 32.025   717.479  0.774    0                        
4                SCS_Type_II_3.665in 13p           12.532664 19.425  1395.44  1.25     0                        
40               SCS_Type_II_3.665in 19p           4.844461 22.575   1157.873 0.85     0                        
41               SCS_Type_II_3.665in 11p           19.331167 15.225  1645.405 1.292    0                        
42               SCS_Type_II_3.665in 9p            7.399404 19.95    995.004  1.56     0                        
43               SCS_Type_II_3.665in 8p            16.749585 16.275  943.042  1.75     0                        
44               SCS_Type_II_3.665in 5p            22.775569 13.65   874.168  1.5      0                        
45               SCS_Type_II_3.665in 69p           26.468083 13.125  694.861  0.96     0                        
48               SCS_Type_II_3.665in 2p            23.967359 15.75   1711.669 0.802    0                        
49               SCS_Type_II_3.665in J1            3.905537 28.875   282.884  0.77     0                        
5                SCS_Type_II_3.665in 17p           54.574329 27.825  1066.015 0.81     0                        
50               SCS_Type_II_3.665in 10p           10.031779 35.7    433.601  0.982    0                        
51               SCS_Type_II_3.665in 151p          6.461084 11.55    287.222  2.02     0                        
52               SCS_Type_II_3.665in 151p          61.573152 15.225  1760.152 1.61     0                        
53               SCS_Type_II_3.665in 134p          5.996847 32.55    555.39   0.69     0                        
6                SCS_Type_II_3.665in 20p           19.95084 26.25    838.469  0.94     0                        
7                SCS_Type_II_3.665in 34p           48.199717 26.775  3726.018 0.89     0                        
8                SCS_Type_II_3.665in 1392          48.015916 13.65   1195.211 1.46     0                        
9                SCS_Type_II_3.665in 1427          164.982681 21     3040.05  1.1      0                        

[SUBAREAS]
;;Subcatchment   N-Imperv   N-Perv     S-Imperv   S-Perv     PctZero    RouteTo    PctRouted 
;;-------------- ---------- ---------- ---------- ---------- ---------- ---------- ----------
11               0.088      0.11       0.6        0.1        25         OUTLET    
12               0.14       0.175      0.6        0.1        25         OUTLET    
13               0.092      0.116      0.6        0.1        25         OUTLET    
15               0.136      0.17       0.6        0.1        25         OUTLET    
16               0.122      0.152      0.6        0.1        25         OUTLET    
17               0.154      0.193      0.6        0.1        25         OUTLET    
18               0.098      0.122      0.6        0.1        25         OUTLET    
2                0.096      0.12       0.6        0.1        25         OUTLET    
21               0.13       0.163      0.6        0.1        25         OUTLET    
22               0.142      0.178      0.6        0.1        25         OUTLET    
23               0.087      0.109      0.6        0.1        25         OUTLET    
24               0.116      0.146      0.6        0.1        25         OUTLET    
27               0.132      0.164      0.6        0.1        25         OUTLET    
38               0.116      0.146      0.6        0.1        25         OUTLET    
39               0.12       0.15       0.6        0.1        25         OUTLET    
4                0.137      0.171      0.6        0.1        25         OUTLET    
40               0.092      0.114      0.6        0.1        25         OUTLET    
41               0.126      0.158      0.6        0.1        25         OUTLET    
42               0.105      0.131      0.6        0.1        25         OUTLET    
43               0.121      0.151      0.6        0.1        25         OUTLET    
44               0.136      0.17       0.6        0.1        25         OUTLET    
45               0.146      0.182      0.6        0.1        25         OUTLET    
48               0.114      0.143      0.6        0.1        25         OUTLET    
49               0.11       0.137      0.6        0.1        25         OUTLET    
5                0.146      0.182      0.6        0.1        25         OUTLET    
50               0.155      0.194      0.6        0.1        25         OUTLET    
51               0.154      0.192      0.6        0.1        25         OUTLET    
52               0.146      0.183      0.6        0.1        25         OUTLET    
53               0.093      0.116      0.6        0.1        25         OUTLET    
6                0.148      0.184      0.6        0.1        25         OUTLET    
7                0.139      0.174      0.6        0.1        25         OUTLET    
8                0.142      0.178      0.6        0.1        25         OUTLET    
9                0.137      0.172      0.6        0.1        25         OUTLET    

[INFILTRATION]
;;Subcatchment   Param1     Param2     Param3     Param4     Param5    
;;-------------- ---------- ---------- ---------- ---------- ----------
11               9.45       0.129      0.809      0          0         
12               8.465      0.038      0.695      0          0         
13               9.45       0.024      0.915      0          0         
15               3.36       0.595      0.422      0          0         
16               5.51       0.306      0.675      0          0         
17               2.4        1.014      0.299      0          0         
18               5.51       0.216      0.675      0          0         
2                6.69       0.232      0.809      0          0         
21               9.45       0.18       0.809      0          0         
22               3.6        0.338      0.484      0          0         
23               12.6       0.002      1          0          0         
24               7.67       0.122      0.752      0          0         
27               4.33       0.378      0.542      0          0         
38               5.09       0.096      0.752      0          0         
39               5.09       0.107      0.752      0          0         
4                6.69       0.182      0.809      0          0         
40               4.05       0.306      0.513      0          0         
41               5.51       0.295      0.675      0          0         
42               5.51       0.205      0.675      0          0         
43               7.67       0.118      0.752      0          0         
44               4.33       0.449      0.542      0          0         
45               8.465      0.044      0.695      0          0         
48               8.465      0.041      0.695      0          0         
49               5.51       0.226      0.675      0          0         
5                5.51       0.236      0.675      0          0         
50               5.51       0.217      0.675      0          0         
51               2.4        0.998      0.299      0          0         
52               4.33       0.263      0.542      0          0         
53               9.45       0.234      0.809      0          0         
6                6.69       0.215      0.809      0          0         
7                5.51       0.281      0.675      0          0         
8                9.45       0.172      0.809      0          0         
9                9.45       0.176      0.809      0          0         

[LID_CONTROLS]
;;Name           Type/Layer Parameters
;;-------------- ---------- ----------
BR               BC
BR               SURFACE    12         0.2        0          0          5         
BR               SOIL       36         0.4        0.24       0.086      0.5        1          7         
BR               STORAGE    24         0.66       0.3        0          NO        
BR               DRAIN      0          0          0          6          0          0                    

GR               GR
GR               SURFACE    12         0.2        0          0          5         
GR               SOIL       6          0.4        0.24       0.086      0.5        1          7         
GR               DRAINMAT   2          0.66       0.03      

IT               IT
IT               SURFACE    12         0          0          0          5         
IT               STORAGE    36         0.66       0.5        0          NO        
IT               DRAIN      0          0          0          6          0          0                    

PP               PP
PP               SURFACE    12         0          0.03       2.5        5         
PP               PAVEMENT   6          0.2        0          30         0          0          0         
PP               SOIL       6          0.4        0.24       0.086      0.5        1          7         
PP               STORAGE    12         0.66       0.5        0          NO        
PP               DRAIN      0          0          0          6          0          0                    

RB               RB
RB               STORAGE    36         0.75       0.5        0          NO        
RB               DRAIN      0          0          6          6          0          0                    

VS               VS
VS               SURFACE    12         0.1        0.3        2.5        2         

[LID_USAGE]
;;Subcatchment   LID Process      Number  Area       Width      InitSat    FromImp    ToPerv     RptFile                  DrainTo          FromPerv  
;;-------------- ---------------- ------- ---------- ---------- ---------- ---------- ---------- ------------------------ ---------------- ----------
11               BR               1       0.0        10         0          10         0          *                        *                0
11               IT               1       0.0        5          0          10         0          *                        *                0
11               RB               1       0.0        3          0          10         0          *                        *                0
11               VS               1       0.0        5          0          10         0          *                        *                0
12               BR               1       0.0        10         0          10         0          *                        *                0
12               IT               1       0.0        5          0          10         0          *                        *                0
12               RB               1       0.0        3          0          10         0          *                        *                0
12               VS               1       0.0        5          0          10         0          *                        *                0
15               BR               1       0.0        10         0          10         0          *                        *                0
15               GR               1       0.0        10         0          10         0          *                        *                0
15               IT               1       0.0        5          0          10         0          *                        *                0
15               PP               1       0.0        10         0          10         0          *                        *                0
15               RB               1       0.0        3          0          10         0          *                        *                0
15               VS               1       0.0        5          0          10         0          *                        *                0
16               BR               1       0.0        10         0          10         0          *                        *                0
16               IT               1       0.0        5          0          10         0          *                        *                0
16               RB               1       0.0        3          0          10         0          *                        *                0
16               VS               1       0.0        5          0          10         0          *                        *                0
17               BR               1       0.0        10         0          10         0          *                        *                0
17               IT               1       0.0        5          0          10         0          *                        *                0
17               VS               1       0.0        5          0          10         0          *                        *                0
18               BR               1       0.0        10         0          10         0          *                        *                0
18               GR               1       0.0        10         0          10         0          *                        *                0
18               IT               1       0.0        5          0          10         0          *                        *                0
18               RB               1       0.0        3          0          10         0          *                        *                0
18               VS               1       0.0        5          0          10         0          *                        *                0
2                BR               1       0.0        10         0          10         0          *                        *                0
2                IT               1       0.0        5          0          10         0          *                        *                0
2                RB               1       0.0        3          0          10         0          *                        *                0
2                VS               1       0.0        5          0          10         0          *                        *                0
21               BR               1       0.0        10         0          10         0          *                        *                0
21               IT               1       0.0        5          0          10         0          *                        *                0
21               VS               1       0.0        5          0          10         0          *                        *                0
23               BR               1       0.0        10         0          10         0          *                        *                0
23               GR               1       0.0        10         0          10         0          *                        *                0
23               IT               1       0.0        5          0          10         0          *                        *                0
23               RB               1       0.0        3          0          10         0          *                        *                0
23               VS               1       0.0        5          0          10         0          *                        *                0
24               BR               1       0.0        10         0          10         0          *                        *                0
24               IT               1       0.0        5          0          10         0          *                        *                0
24               VS               1       0.0        5          0          10         0          *                        *                0
27               BR               1       0.0        10         0          10         0          *                        *                0
27               IT               1       0.0        5          0          10         0          *                        *                0
27               RB               1       0.0        3          0          10         0          *                        *                0
27               VS               1       0.0        5          0          10         0          *                        *                0
45               BR               1       0.0        10         0          10         0          *                        *                0
45               IT               1       0.0        5          0          10         0          *                        *                0
45               RB               1       0.0        3          0          10         0          *                        *                0
45               VS               1       0.0        5          0          10         0          *                        *                0
5                BR               1       0.0        10         0          10         0          *                        *                0
5                IT               1       0.0        5          0          10         0          *                        *                0
5                PP               1       0.0        10         0          10         0          *                        *                0
5                RB               1       0.0        3          0          10         0          *                        *                0
5                VS               1       0.0        5          0          10         0          *                        *                0
52               BR               1       0.0        10         0          10         0          *                        *                0
52               IT               1       0.0        5          0          10         0          *                        *                0
52               RB               1       0.0        3          0          10         0          *                        *                0
52               VS               1       0.0        5          0          10         0          *                        *                0
7                BR               1       0.0        10         0          10         0          *                        *                0
7                GR               1       0.0        10         0          10         0          *                        *                0
7                IT               1       0.0        5          0          10         0          *                        *                0
7                PP               1       0.0        10         0          10         0          *                        *                0
7                RB               1       0.0        3          0          10         0          *                        *                0
7                VS               1       0.0        5          0          10         0          *                        *                0
8                BR               1       0.0        10         0          10         0          *                        *                0
8                IT               1       0.0        5          0          10         0          *                        *                0
8                RB               1       0.0        3          0          10         0          *                        *                0
8                VS               1       0.0        5          0          10         0          *                        *                0
9                BR               1       0.0        10         0          10         0          *                        *                0
9                IT               1       0.0        5          0          10         0          *                        *                0
9                RB               1       0.0        3          0          10         0          *                        *                0
9                VS               1       0.0        5          0          10         0          *                        *                0

[AQUIFERS]
;;Name           Por    WP     FC     Ksat   Kslope Tslope ETu    ETs    Seep   Ebot   Egw    Umc    ETupat 
;;-------------- ------ ------ ------ ------ ------ ------ ------ ------ ------ ------ ------ ------ ------
Aquifer          0.4    0.086  0.24   0.5    1      15.0   0.35   14.0   0.0012 1810   2017.7 0.30         

[GROUNDWATER]
;;Subcatchment   Aquifer          Node             Esurf  A1     B1     A2     B2     A3     Dsw    Egwt   Ebot   Wgr    Umc   
;;-------------- ---------------- ---------------- ------ ------ ------ ------ ------ ------ ------ ------ ------ ------ ------
16               Aquifer          J10              2113.829 9E-05 1     0      1      0      0      *      *      *      *     
18               Aquifer          152p             2076.21 9E-05 1      0      1      0      0      *      *      *      *     
2                Aquifer          14p              2205.8 9E-05  1      0      1      0      0      *      *      *      *     
21               Aquifer          153p             2059.02 9E-05 1      0      1      0      0      *      *      *      *     
23               Aquifer          153p             2063.448 9E-05 1     0      1      0      0      *      *      *      *     
4                Aquifer          13p              2171.456 9E-05 1     0      1      0      0      *      *      *      *     
8                Aquifer          1392             2137.379 9E-05 1     0      1      0      0      *      *      *      *     
9                Aquifer          1427             2099.788 9E-05 1     0      1      0      0      *      *      *      *     

[JUNCTIONS]
;;Name           Elevation  MaxDepth   InitDepth  SurDepth   Aponded   
;;-------------- ---------- ---------- ---------- ---------- ----------
;Manhole
1390             2096.18    10         0          0          0         
;Headwall/Endwall
1392             2093.99    12         0          0          0         
;Cross Section
1427             2053.53    9          0          0          0         
;Cross Section
1431             2121.14    5          0          0          0         
;Cross Section
1444             2115.69    3          0          0          0         
;Cross Section
1445             2127.43    5          0          0          0         
;Catch Basin
3360             2120.96    9          0          0          0         
;Catch Basin
3702             2052.44580078 9       0          0          0         
;Underground Junction
619              2060.13    8          0          0          0         
;Manhole
638              2065.54226562 6       0          0          0         
;Cross Section
713              2085.73    9          0          0          0         
J1               2143.72    5          0          0          0         
J10              2061.62    6          0          0          0         
J11              2070       9          0          0          0         
J12              2156.67    9          0          0          0         
J13              2127       9          0          0          0         
J14              2061       4          0          0          0         
J15              2020       9.84       0          0          0         
J2               2049       7          0          0          0         
J3               2044       6          0          0          0         
J8               2066       5          0          0          0         
J9               2037.78    10         0          0          0         

[OUTFALLS]
;;Name           Elevation  Type       Stage Data       Gated    Route To        
;;-------------- ---------- ---------- ---------------- -------- ----------------
OF1              2019       FREE                        NO                       

[STORAGE]
;;Name           Elev.    MaxDepth   InitDepth  Shape       Curve Name/Params            SurDepth Fevap    Psi      Ksat     IMD     
;;-------------- -------- ---------- ---------- ----------- ---------------------------- -------- -------- -------- -------- --------
;Prices Fork/North Main
10p              2090     4          0          TABULAR     10                           0        0        5.51     0.003    0       
;Rec Center
11p              2140     3          0          TABULAR     11                           0        0        5.51     0.003    0       
;Firehouse Subs
134p             2080     2.05       0          TABULAR     134                          0        0        6.27     0.003    0       
;Patrick Henry/Giles Road
13p              2140     4          0          TABULAR     13                           0        0        6.69     0.003    0       
;Upper Giles Road
14p              2163     5          0          TABULAR     1                            0        0        6.69     0.003    0       
;Fiddlers Green (Day Street 1)
151p             2150     7          0          TABULAR     151                          0        0        4.33     0.003    0       
;Duck Pond_Up_Retention_Pond
152p             2025     8.2        2.25       TABULAR     152                          0        0        9.45     0.001    0       
;Duck Pond_Down_Retention_Pond
153p             2020     9.84       2.25       TABULAR     153                          0        0        9.45     0.001    0       
;Collegiate Suites
17p              2130     8.2        0          TABULAR     17                           0        0        5.51     0.003    0       
;University Terrace North
18p              2133     2          0          TABULAR     18                           0        0        5.09     0.003    0       
;University Terrace South
19p              2130     3          0          TABULAR     19                           0        0        4.05     0.003    0       
;Wong Park 1
1p               2078     5          0          TABULAR     1                            0        0        8.46     0.003    0       
;Moog
20p              2110     7          0          TABULAR     20                           0        0        6.69     0.003    0       
;Berryfield
24p              2100     2.5        0          TABULAR     24                           0        0        4.33     0.003    0       
;Knob Hill
29p              2170     5          0          TABULAR     29                           0        0        2.4      0.003    0       
;Wong Park 2
2p               2080     2          0          TABULAR     2                            0        0        8.46     0.003    0       
;Graves/Palmer