aqu_catunit.ele: written by SWAT+ editor v2.3.3 on 2025-03-05 17:01 for SWAT+ rev.60.5.7
      id  name                   obj_typ  obj_typ_no      bsn_frac      sub_frac      reg_frac  
       1  aqu011                     aqu           1       0.00799       0.00000       0.00000  
       2  aqu012                     aqu           2       0.02417       0.00000       0.00000  
       3  aqu021                     aqu           3       0.03240       0.00000       0.00000  
       4  aqu022                     aqu           4       0.05775       0.00000       0.00000  
       5  aqu031                     aqu           5       0.02467       0.00000       0.00000  
       6  aqu032                     aqu           6       0.06713       0.00000       0.00000  
       7  aqu041                     aqu           7       0.00681       0.00000       0.00000  
       8  aqu042                     aqu           8       0.03911       0.00000       0.00000  
       9  aqu051                     aqu           9       0.00921       0.00000       0.00000  
      10  aqu052                     aqu          10       0.04702       0.00000       0.00000  
      11  aqu061                     aqu          11       0.00193       0.00000       0.00000  
      12  aqu062                     aqu          12       0.00700       0.00000       0.00000  
      13  aqu071                     aqu          13       0.01257       0.00000       0.00000  
      14  aqu072                     aqu          14       0.04101       0.00000       0.00000  
      15  aqu081                     aqu          15       0.02544       0.00000       0.00000  
      16  aqu082                     aqu          16       0.05848       0.00000       0.00000  
      17  aqu091                     aqu          17       0.01441       0.00000       0.00000  
      18  aqu092                     aqu          18       0.04640       0.00000       0.00000  
      19  aqu101                     aqu          19       0.00908       0.00000       0.00000  
      20  aqu102                     aqu          20       0.00610       0.00000       0.00000  
      21  aqu111                     aqu          21       0.01172       0.00000       0.00000  
      22  aqu112                     aqu          22       0.02111       0.00000       0.00000  
      23  aqu121                     aqu          23       0.00504       0.00000       0.00000  
      24  aqu122                     aqu          24       0.01378       0.00000       0.00000  
      25  aqu131                     aqu          25       0.00202       0.00000       0.00000  
      26  aqu132                     aqu          26       0.00461       0.00000       0.00000  
      27  aqu141                     aqu          27       0.00114       0.00000       0.00000  
      28  aqu142                     aqu          28       0.00077       0.00000       0.00000  
      29  aqu151                     aqu          29       0.01198       0.00000       0.00000  
      30  aqu152                     aqu          30       0.04119       0.00000       0.00000  
      31  aqu161                     aqu          31       0.00307       0.00000       0.00000  
      32  aqu162                     aqu          32       0.00473       0.00000       0.00000  
      33  aqu171                     aqu          33       0.00543       0.00000       0.00000  
      34  aqu172                     aqu          34       0.03182       0.00000       0.00000  
      35  aqu181                     aqu          35       0.00646       0.00000       0.00000  
      36  aqu182                     aqu          36       0.01828       0.00000       0.00000  
      37  aqu191                     aqu          37       0.00469       0.00000       0.00000  
      38  aqu192                     aqu          38       0.01747       0.00000       0.00000  
      39  aqu201                     aqu          39       0.00288       0.00000       0.00000  
      40  aqu202                     aqu          40       0.01109       0.00000       0.00000  
      41  aqu211                     aqu          41       0.00603       0.00000       0.00000  
      42  aqu212                     aqu          42       0.01210       0.00000       0.00000  
      43  aqu221                     aqu          43       0.00473       0.00000       0.00000  
      44  aqu222                     aqu          44       0.02381       0.00000       0.00000  
      45  aqu231                     aqu          45       0.00848       0.00000       0.00000  
      46  aqu232                     aqu          46       0.02646       0.00000       0.00000  
      47  aqu241                     aqu          47       0.00925       0.00000       0.00000  
      48  aqu242                     aqu          48       0.02206       0.00000       0.00000  
      49  aqu251                     aqu          49       0.00670       0.00000       0.00000  
      50  aqu252                     aqu          50       0.03724       0.00000       0.00000  
      51  aqu261                     aqu          51       0.00681       0.00000       0.00000  
      52  aqu262                     aqu          52       0.02440       0.00000       0.00000  
      53  aqu271                     aqu          53       0.00039       0.00000       0.00000  
      54  aqu272                     aqu          54       0.00010       0.00000       0.00000  
      55  aqu281                     aqu          55       0.00409       0.00000       0.00000  
      56  aqu282                     aqu          56       0.01488       0.00000       0.00000  
      57  aqu291                     aqu          57       0.00483       0.00000       0.00000  
      58  aqu292                     aqu          58       0.02925       0.00000       0.00000  
      59  aqu301                     aqu          59       0.00011       0.00000       0.00000  
      60  aqu302                     aqu          60       0.00022       0.00000       0.00000  
      61  aqu311                     aqu          61       0.00003       0.00000       0.00000  
      62  aqu312                     aqu          62       0.00004       0.00000       0.00000  
      63  aqu_deep031                aqu          63       1.00000       0.00000       0.00000  
