aquifer.con: written by SWAT+ editor v2.3.3 on 2025-03-05 17:01 for SWAT+ rev.60.5.7
      id  name                gis_id          area           lat           lon          elev       aqu               wst       cst      ovfl      rule   out_tot       obj_typ    obj_id       hyd_typ          frac  
       1  aqu011                  11       6.62100      37.22164     -80.41612     629.96991         1     s37206n80447w         0         0         0         2           sdc        86           tot       1.00000           aqu        63           rhg       1.00000  
       2  aqu012                  12      20.04440      37.22164     -80.41612     637.86238         2     s37206n80447w         0         0         0         2           aqu         1           tot       1.00000           aqu        63           rhg       1.00000  
       3  aqu021                  21      26.86530      37.22158     -80.42989     620.01257         3     s37206n80447w         0         0         0         2           sdc        69           tot       1.00000           aqu        63           rhg       1.00000  
       4  aqu022                  22      47.88650      37.22158     -80.42989     625.63777         4     s37206n80447w         0         0         0         2           aqu         3           tot       1.00000           aqu        63           rhg       1.00000  
       5  aqu031                  31      20.45540      37.21532     -80.43680     613.46283         5     s37206n80447w         0         0         0         2           sdc       152           tot       1.00000           aqu        63           rhg       1.00000  
       6  aqu032                  32      55.66220      37.21532     -80.43680     621.27262         6     s37206n80447w         0         0         0         2           aqu         5           tot       1.00000           aqu        63           rhg       1.00000  
       7  aqu041                  41       5.64960      37.22084     -80.44266     618.58075         7     s37206n80447w         0         0         0         2           sdc        92           tot       1.00000           aqu        63           rhg       1.00000  
       8  aqu042                  42      32.42730      37.22084     -80.44266     624.23554         8     s37206n80447w         0         0         0         2           aqu         7           tot       1.00000           aqu        63           rhg       1.00000  
       9  aqu051                  51       7.63870      37.22055     -80.44841     622.80383         9     s37206n80447w         0         0         0         2           sdc        95           tot       1.00000           aqu        63           rhg       1.00000  
      10  aqu052                  52      38.98620      37.22055     -80.44841     628.45594        10     s37206n80447w         0         0         0         2           aqu         9           tot       1.00000           aqu        63           rhg       1.00000  
      11  aqu061                  61       1.59820      37.21982     -80.41959     630.80328        11     s37206n80447w         0         0         0         2           sdc        84           tot       1.00000           aqu        63           rhg       1.00000  
      12  aqu062                  62       5.80380      37.21982     -80.41959     632.74642        12     s37206n80447w         0         0         0         2           aqu        11           tot       1.00000           aqu        63           rhg       1.00000  
      13  aqu071                  71      10.42370      37.21818     -80.41166     641.56799        13     s37206n80447w         0         0         0         2           sdc        87           tot       1.00000           aqu        63           rhg       1.00000  
      14  aqu072                  72      34.00540      37.21818     -80.41166     645.61801        14     s37206n80447w         0         0         0         2           aqu        13           tot       1.00000           aqu        63           rhg       1.00000  
      15  aqu081                  81      21.09510      37.21677     -80.42422     617.24359        15     s37206n80447w         0         0         0         2           sdc        75           tot       1.00000           aqu        63           rhg       1.00000  
      16  aqu082                  82      48.48980      37.21677     -80.42422     629.16347        16     s37206n80447w         0         0         0         2           aqu        15           tot       1.00000           aqu        63           rhg       1.00000  
      17  aqu091                  91      11.95050      37.21519     -80.45137     628.09393        17     s37206n80447w         0         0         0         2           sdc       207           tot       1.00000           aqu        63           rhg       1.00000  
      18  aqu092                  92      38.47500      37.21519     -80.45137     625.54134        18     s37206n80447w         0         0         0         2           aqu        17           tot       1.00000           aqu        63           rhg       1.00000  
      19  aqu101                 101       7.52610      37.21672     -80.43225     616.00299        19     s37206n80447w         0         0         0         2           sdc        71           tot       1.00000           aqu        63           rhg       1.00000  
      20  aqu102                 102       5.05760      37.21672     -80.43225     619.37259        20     s37206n80447w         0         0         0         2           aqu        19           tot       1.00000           aqu        63           rhg       1.00000  
      21  aqu111                 111       9.72030      37.21460     -80.41536     640.38336        21     s37206n80447w         0         0         0         2           sdc       107           tot       1.00000           aqu        63           rhg       1.00000  
      22  aqu112                 112      17.50140      37.21460     -80.41536     640.88573        22     s37206n80447w         0         0         0         2           aqu        21           tot       1.00000           aqu        63           rhg       1.00000  
      23  aqu121                 121       4.18200      37.21500     -80.44642     619.04596        23     s37206n80447w         0         0         0         2           sdc       210           tot       1.00000           aqu        63           rhg       1.00000  
      24  aqu122                 122      11.42960      37.21500     -80.44642     621.84699        24     s37206n80447w         0         0         0         2           aqu        23           tot       1.00000           aqu        63           rhg       1.00000  
      25  aqu131                 131       1.67590      37.21549     -80.44280     608.83167        25     s37206n80447w         0         0         0         2           sdc       166           tot       1.00000           aqu        63           rhg       1.00000  
      26  aqu132                 132       3.81860      37.21549     -80.44280     613.89433        26     s37206n80447w         0         0         0         2           aqu        25           tot       1.00000           aqu        63           rhg       1.00000  
      27  aqu141                 141       0.94790      37.21387     -80.43074     620.57715        27     s37206n80447w         0         0         0         2           sdc        74           tot       1.00000           aqu        63           rhg       1.00000  
      28  aqu142                 142       0.63980      37.21387     -80.43074     620.41982        28     s37206n80447w         0         0         0         2           aqu        27           tot       1.00000           aqu        63           rhg       1.00000  
      29  aqu151                 151       9.92940      37.21204     -80.42407     627.70850        29     s37206n80447w         0         0         0         2           sdc       159           tot       1.00000           aqu        63           rhg       1.00000  
      30  aqu152                 152      34.15640      37.21204     -80.42407     635.20461        30     s37206n80447w         0         0         0         2           aqu        29           tot       1.00000           aqu        63           rhg       1.00000  
      31  aqu161                 161       2.54490      37.21287     -80.44259     606.97528        31     s37206n80447w         0         0         0         2           sdc       206           tot       1.00000           aqu        63           rhg       1.00000  
      32  aqu162                 162       3.92540      37.21287     -80.44259     610.48833        32     s37206n80447w         0         0         0         2           aqu        31           tot       1.00000           aqu        63           rhg       1.00000  
      33  aqu171                 171       4.50160      37.21089     -80.45200     613.55048        33     s37206n80447w         0         0         0         2           sdc       250           tot       1.00000           aqu        63           rhg       1.00000  
      34  aqu172                 172      26.37930      37.21089     -80.45200     620.27547        34     s37206n80447w         0         0         0         2           aqu        33           tot       1.00000           aqu        63           rhg       1.00000  
      35  aqu181                 181       5.35720      37.20897     -80.42436     633.78284        35     s37206n80447w         0         0         0         2           sdc       158           tot       1.00000           aqu        63           rhg       1.00000  
      36  aqu182                 182      15.15380      37.20897     -80.42436     640.09425        36     s37206n80447w         0         0         0         2           aqu        35           tot       1.00000           aqu        63           rhg       1.00000  
      37  aqu191                 191       3.88640      37.21007     -80.43576     621.03839        37     s37206n80447w         0         0         0         2           sdc       288           tot       1.00000           aqu        63           rhg       1.00000  
      38  aqu192                 192      14.48790      37.21007     -80.43576     624.13054        38     s37206n80447w         0         0         0         2           aqu        37           tot       1.00000           aqu        63           rhg       1.00000  
      39  aqu201                 201       2.38570      37.21041     -80.44198     613.35315        39     s37206n80447w         0         0         0         2           sdc       203           tot       1.00000           aqu        63           rhg       1.00000  
      40  aqu202                 202       9.19450      37.21041     -80.44198     617.39859        40     s37206n80447w         0         0         0         2           aqu        39           tot       1.00000           aqu        63           rhg       1.00000  
      41  aqu211                 211       4.99870      37.20947     -80.44527     609.07483        41     s37206n80447w         0         0         0         2           sdc       243           tot       1.00000           aqu        63           rhg       1.00000  
      42  aqu212                 212      10.02870      37.20947     -80.44527     612.69853        42     s37206n80447w         0         0         0         2           aqu        41           tot       1.00000           aqu        63           rhg       1.00000  
      43  aqu221                 221       3.92070      37.20860     -80.43286     621.89001        43     s37206n80447w         0         0         0         2           sdc       307           tot       1.00000           aqu        63           rhg       1.00000  
      44  aqu222                 222      19.74280      37.20860     -80.43286     625.39936        44     s37206n80447w         0         0         0         2           aqu        43           tot       1.00000           aqu        63           rhg       1.00000  
      45  aqu231                 231       7.03300      37.20632     -80.44151     608.18170        45     s37206n80447w         0         0         0         2           sdc       281           tot       1.00000           aqu        63           rhg       1.00000  
      46  aqu232                 232      21.94130      37.20632     -80.44151     615.45947        46     s37206n80447w         0         0         0         2           aqu        45           tot       1.00000           aqu        63           rhg       1.00000  
      47  aqu241                 241       7.67090      37.20685     -80.44919     609.25122        47     s37206n80447w         0         0         0         2           sdc       277           tot       1.00000           aqu        63           rhg       1.00000  
      48  aqu242                 242      18.29320      37.20685     -80.44919     615.09734        48     s37206n80447w         0         0         0         2           aqu        47           tot       1.00000           aqu        63           rhg       1.00000  
      49  aqu251                 251       5.55180      37.20578     -80.42636     627.36371        49     s37206n80447w         0         0         0         2           sdc       295           tot       1.00000           aqu        63           rhg       1.00000  
      50  aqu252                 252      30.87360      37.20578     -80.42636     633.13426        50     s37206n80447w         0         0         0         2           aqu        49           tot       1.00000           aqu        63           rhg       1.00000  
      51  aqu261                 261       5.65020      37.20488     -80.43436     617.00079        51     s37206n80447w         0         0         0         2           sdc       289           tot       1.00000           aqu        63           rhg       1.00000  
      52  aqu262                 262      20.23480      37.20488     -80.43436     622.84952        52     s37206n80447w         0         0         0         2           aqu        51           tot       1.00000           aqu        63           rhg       1.00000  
      53  aqu271                 271       0.32680      37.20608     -80.43780     609.23035        53     s37206n80447w         0         0         0         2           sdc       287           tot       1.00000           aqu        63           rhg       1.00000  
      54  aqu272                 272       0.08360      37.20608     -80.43780     612.26196        54     s37206n80447w         0         0         0         2           aqu        53           tot       1.00000           aqu        63           rhg       1.00000  
      55  aqu281                 281       3.39150      37.20364     -80.45066     611.07520        55     s37206n80447w         0         0         0         2           sdc       298           tot       1.00000           aqu        63           rhg       1.00000  
      56  aqu282                 282      12.33820      37.20364     -80.45066     618.68350        56     s37206n80447w         0         0         0         2           aqu        55           tot       1.00000           aqu        63           rhg       1.00000  
      57  aqu291                 291       4.00240      37.20242     -80.42754     635.37781        57     s37206n80447w         0         0         0         2           sdc       300           tot       1.00000           aqu        63           rhg       1.00000  
      58  aqu292                 292      24.25180      37.20242     -80.42754     639.55047        58     s37206n80447w         0         0         0         2           aqu        57           tot       1.00000           aqu        63           rhg       1.00000  
      59  aqu301                 301       0.08860      37.20419     -80.44684     603.47687        59     s37206n80447w         0         0         0         2           sdc       276           tot       1.00000           aqu        63           rhg       1.00000  
      60  aqu302                 302       0.18430      37.20419     -80.44684     603.30277        60     s37206n80447w         0         0         0         2           aqu        59           tot       1.00000           aqu        63           rhg       1.00000  
      61  aqu311                 311       0.02270      37.20390     -80.44625     603.01318        61     s37206n80447w         0         0         0         2           sdc       275           tot       1.00000           aqu        63           rhg       1.00000  
      62  aqu312                 312       0.03500      37.20390     -80.44625     602.76000        62     s37206n80447w         0         0         0         2           aqu        61           tot       1.00000           aqu        63           rhg       1.00000  
      63  aqu_deep031             31     829.14440      37.21394     -80.43389     626.03690        63     s37206n80447w         0         0         0         0  
