calibration.cal: written by SWAT+ editor v2.3.3 on 2025-03-05 17:01 for SWAT+ rev.60.5.7
1
cal_parm               chg_typ       chg_val     conds  soil_lyr1  soil_lyr2       yr1       yr2      day1      day2   obj_tot  
cn2                     pctchg     -18.00000         0         0         0         0         0         0         0         0  
