chandeg.con: written by SWAT+ editor v2.3.3 on 2025-03-05 17:01 for SWAT+ rev.60.5.7
      id  name                gis_id          area           lat           lon          elev      lcha               wst       cst      ovfl      rule   out_tot       obj_typ    obj_id       hyd_typ          frac  
       1  cha001                   1      30.37240      37.22245     -80.43104             0         1     s37206n80447w         0         0         0         1           sdc        23           tot       1.00000  
       2  cha002                   2      27.11670      37.22307     -80.42901             0         2     s37206n80447w         0         0         0         1           sdc         1           tot       1.00000  
       3  cha003                   3      17.98040      37.22230     -80.42686             0         3     s37206n80447w         0         0         0         1           sdc         2           tot       1.00000  
       4  cha004                   4       2.25660      37.22185     -80.42491             0         4     s37206n80447w         0         0         0         1           sdc        24           tot       1.00000  
       5  cha005                   5      10.08940      37.22219     -80.42421             0         5     s37206n80447w         0         0         0         1           sdc        24           tot       1.00000  
       6  cha006                   6       3.14570      37.22135     -80.41534             0         6     s37206n80447w         0         0         0         1           sdc        25           tot       1.00000  
       7  cha007                   7       3.94090      37.22194     -80.42258             0         7     s37206n80447w         0         0         0         1           sdc         5           tot       1.00000  
       8  cha008                   8       8.19550      37.22191     -80.41520             0         8     s37206n80447w         0         0         0         1           sdc        25           tot       1.00000  
       9  cha009                   9       6.58230      37.22204     -80.43177             0         9     s37206n80447w         0         0         0         1           sdc        23           tot       1.00000  
      10  cha010                  10       1.63710      37.22204     -80.44919             0        10     s37206n80447w         0         0         0         1           sdc        38           tot       1.00000  
      11  cha011                  11       2.08020      37.22230     -80.43180             0        11     s37206n80447w         0         0         0         1           sdc         9           tot       1.00000  
      12  cha012                  12       3.80960      37.22231     -80.41403             0        12     s37206n80447w         0         0         0         1           sdc         8           tot       1.00000  
      13  cha013                  13       8.77720      37.22239     -80.45079             0        13     s37206n80447w         0         0         0         1           sdc        38           tot       1.00000  
      14  cha014                  14       1.56450      37.22275     -80.44450             0        14     s37206n80447w         0         0         0         1           sdc        39           tot       1.00000  
      15  cha015                  15       3.01650      37.22252     -80.42307             0        15     s37206n80447w         0         0         0         1           sdc         5           tot       1.00000  
      16  cha016                  16       3.79890      37.22311     -80.42686             0        16     s37206n80447w         0         0         0         1           sdc         2           tot       1.00000  
      17  cha017                  17       1.94140      37.22283     -80.43249             0        17     s37206n80447w         0         0         0         1           sdc         9           tot       1.00000  
      18  cha018                  18       3.24450      37.22273     -80.41468             0        18     s37206n80447w         0         0         0         1           sdc         8           tot       1.00000  
      19  cha019                  19       3.04820      37.22310     -80.44468             0        19     s37206n80447w         0         0         0         1           sdc        39           tot       1.00000  
      20  cha020                  20       2.02290      37.22337     -80.43028             0        20     s37206n80447w         0         0         0         1           sdc         1           tot       1.00000  
      21  cha021                  21      68.87400      37.21919     -80.43385             0        21     s37206n80447w         0         0         0         1           sdc        70           tot       1.00000  
      22  cha022                  22      57.04310      37.22016     -80.43292             0        22     s37206n80447w         0         0         0         1           sdc        21           tot       1.00000  
      23  cha023                  23      40.20990      37.22127     -80.43205             0        23     s37206n80447w         0         0         0         1           sdc        22           tot       1.00000  
      24  cha024                  24      12.82110      37.22183     -80.42554             0        24     s37206n80447w         0         0         0         1           sdc         3           tot       1.00000  
      25  cha025                  25      14.17010      37.22134     -80.41661             0        25     s37206n80447w         0         0         0         1           sdc        86           tot       1.00000  
      26  cha026                  26      11.52110      37.22119     -80.43154             0        26     s37206n80447w         0         0         0         1           sdc        22           tot       1.00000  
      27  cha027                  27       1.97980      37.22163     -80.43046             0        27     s37206n80447w         0         0         0         1           sdc        26           tot       1.00000  
      28  cha028                  28      32.55740      37.21979     -80.44742             0        28     s37206n80447w         0         0         0         1           sdc        98           tot       1.00000  
      29  cha029                  29      26.88860      37.21988     -80.44239             0        29     s37206n80447w         0         0         0         1           sdc        99           tot       1.00000  
      30  cha030                  30      29.00840      37.22042     -80.44784             0        30     s37206n80447w         0         0         0         1           sdc        28           tot       1.00000  
      31  cha031                  31      11.96710      37.22081     -80.44221             0        31     s37206n80447w         0         0         0         1           sdc        29           tot       1.00000  
      32  cha032                  32      20.84840      37.22073     -80.44810             0        32     s37206n80447w         0         0         0         1           sdc        30           tot       1.00000  
      33  cha033                  33       8.54910      37.22022     -80.43414             0        33     s37206n80447w         0         0         0         1           sdc        21           tot       1.00000  
      34  cha034                  34      10.62630      37.22097     -80.44178             0        34     s37206n80447w         0         0         0         1           sdc        29           tot       1.00000  
      35  cha035                  35       5.79180      37.22129     -80.44140             0        35     s37206n80447w         0         0         0         1           sdc        34           tot       1.00000  
      36  cha036                  36       7.65030      37.22121     -80.44822             0        36     s37206n80447w         0         0         0         1           sdc        30           tot       1.00000  
      37  cha037                  37      10.72330      37.21821     -80.40963             0        37     s37206n80447w         0         0         0         1           sdc       101           tot       1.00000  
      38  cha038                  38      12.60360      37.22138     -80.44859             0        38     s37206n80447w         0         0         0         1           sdc        32           tot       1.00000  
      39  cha039                  39      10.14910      37.22179     -80.44335             0        39     s37206n80447w         0         0         0         1           sdc        31           tot       1.00000  
      40  cha040                  40       3.42350      37.22224     -80.44159             0        40     s37206n80447w         0         0         0         1           sdc        35           tot       1.00000  
      41  cha041                  41       5.22030      37.22212     -80.44784             0        41     s37206n80447w         0         0         0         1           sdc        36           tot       1.00000  
      42  cha042                  42       5.80370      37.22173     -80.41759             0        42     s37206n80447w         0         0         0         1           sdc        86           tot       1.00000  
      43  cha043                  43       1.82530      37.22201     -80.44776             0        43     s37206n80447w         0         0         0         1           sdc        36           tot       1.00000  
      44  cha044                  44       4.67030      37.22156     -80.43538             0        44     s37206n80447w         0         0         0         1           sdc        33           tot       1.00000  
      45  cha045                  45       2.12820      37.22180     -80.44133             0        45     s37206n80447w         0         0         0         1           sdc        35           tot       1.00000  
      46  cha046                  46       9.51230      37.22160     -80.43070             0        46     s37206n80447w         0         0         0         1           sdc        26           tot       1.00000  
      47  cha047                  47       8.23490      37.22033     -80.44818             0        47     s37206n80447w         0         0         0         1           sdc        32           tot       1.00000  
      48  cha048                  48       5.23820      37.22151     -80.43062             0        48     s37206n80447w         0         0         0         1           sdc        46           tot       1.00000  
      49  cha049                  49       3.69690      37.21938     -80.44843             0        49     s37206n80447w         0         0         0         1           sdc        47           tot       1.00000  
      50  cha050                  50       1.82990      37.21889     -80.43404             0        50     s37206n80447w         0         0         0         1           sdc        70           tot       1.00000  
      51  cha051                  51       2.14560      37.21916     -80.44290             0        51     s37206n80447w         0         0         0         1           sdc        99           tot       1.00000  
      52  cha052                  52       2.59040      37.21910     -80.41059             0        52     s37206n80447w         0         0         0         1           sdc       101           tot       1.00000  
      53  cha053                  53       4.27070      37.22069     -80.43063             0        53     s37206n80447w         0         0         0         1           sdc        46           tot       1.00000  
      54  cha054                  54       3.55270      37.21994     -80.44935             0        54     s37206n80447w         0         0         0         1           sdc        47           tot       1.00000  
      55  cha055                  55       1.62390      37.21983     -80.44675             0        55     s37206n80447w         0         0         0         1           sdc        98           tot       1.00000  
      56  cha056                  56       2.65100      37.22089     -80.43525             0        56     s37206n80447w         0         0         0         1           sdc        33           tot       1.00000  
      57  cha057                  57       1.53940      37.22090     -80.44227             0        57     s37206n80447w         0         0         0         1           sdc        31           tot       1.00000  
      58  cha058                  58       2.15060      37.22110     -80.44094             0        58     s37206n80447w         0         0         0         1           sdc        34           tot       1.00000  
      59  cha059                  59       2.07830      37.22060     -80.44755             0        59     s37206n80447w         0         0         0         1           sdc        28           tot       1.00000  
      60  cha060                  60       2.96950      37.22126     -80.42987             0        60     s37206n80447w         0         0         0         1           sdc        48           tot       1.00000  
      61  cha061                  61       2.08550      37.22146     -80.42594             0        61     s37206n80447w         0         0         0         1           sdc         3           tot       1.00000  
      62  cha062                  62       2.05110      37.22140     -80.43055             0        62     s37206n80447w         0         0         0         1           sdc        48           tot       1.00000  
      63  cha063                  63     364.32560      37.21609     -80.43617             0        63     s37206n80447w         0         0         0         1           sdc       157           tot       1.00000  
      64  cha064                  64     352.70030      37.21670     -80.43607             0        64     s37206n80447w         0         0         0         1           sdc        63           tot       1.00000  
      65  cha065                  65     346.40810      37.21734     -80.43610             0        65     s37206n80447w         0         0         0         1           sdc        64           tot       1.00000  
      66  cha066                  66     343.54210      37.21757     -80.43582             0        66     s37206n80447w         0         0         0         1           sdc        65           tot       1.00000  
      67  cha067                  67     335.88270      37.21773     -80.43563             0        67     s37206n80447w         0         0         0         1           sdc        66           tot       1.00000  
      68  cha068                  68     331.37070      37.21787     -80.43544             0        68     s37206n80447w         0         0         0         1           sdc        67           tot       1.00000  
      69  cha069                  69      74.75180      37.21806     -80.43519             0        69     s37206n80447w         0         0         0         1           sdc        68           tot       1.00000  
      70  cha070                  70      72.90700      37.21847     -80.43467             0        70     s37206n80447w         0         0         0         1           sdc        69           tot       1.00000  
      71  cha071                  71     254.07130      37.21800     -80.43525             0        71     s37206n80447w         0         0         0         1           sdc        68           tot       1.00000  
      72  cha072                  72     249.48200      37.21685     -80.43368             0        72     s37206n80447w         0         0         0         1           sdc        71           tot       1.00000  
      73  cha073                  73     244.02770      37.21567     -80.43190             0        73     s37206n80447w         0         0         0         1           sdc        72           tot       1.00000  
      74  cha074                  74      66.18450      37.21467     -80.43086             0        74     s37206n80447w         0         0         0         1           sdc        73           tot       1.00000  
      75  cha075                  75     175.30310      37.21564     -80.43149             0        75     s37206n80447w         0         0         0         1           sdc        73           tot       1.00000  
      76  cha076                  76     169.37970      37.21596     -80.43077             0        76     s37206n80447w         0         0         0         1           sdc        75           tot       1.00000  
      77  cha077                  77     165.07880      37.21637     -80.42976             0        77     s37206n80447w         0         0         0         1           sdc        76           tot       1.00000  
      78  cha078                  78     161.31380      37.21644     -80.42793             0        78     s37206n80447w         0         0         0         1           sdc        77           tot       1.00000  
      79  cha079                  79     148.51300      37.21662     -80.42560             0        79     s37206n80447w         0         0         0         1           sdc        78           tot       1.00000  
      80  cha080                  80     144.21280      37.21699     -80.42429             0        80     s37206n80447w         0         0         0         1           sdc        79           tot       1.00000  
      81  cha081                  81     130.59000      37.21695     -80.42336             0        81     s37206n80447w         0         0         0         1           sdc        80           tot       1.00000  
      82  cha082                  82     117.97940      37.21673     -80.42278             0        82     s37206n80447w         0         0         0         1           sdc        81           tot       1.00000  
      83  cha083                  83     107.23970      37.21709     -80.42102             0        83     s37206n80447w         0         0         0         1           sdc        82           tot       1.00000  
      84  cha084                  84      78.49650      37.21745     -80.41927             0        84     s37206n80447w         0         0         0         1           sdc        83           tot       1.00000  
      85  cha085                  85      73.80100      37.21791     -80.41879             0        85     s37206n80447w         0         0         0         1           sdc        84           tot       1.00000  
      86  cha086                  86      26.66540      37.21968     -80.41800             0        86     s37206n80447w         0         0         0         1           sdc        85           tot       1.00000  
      87  cha087                  87      44.42910      37.21820     -80.41737             0        87     s37206n80447w         0         0         0         1           sdc        85           tot       1.00000  
      88  cha088                  88      37.50240      37.21796     -80.41617             0        88     s37206n80447w         0         0         0         1           sdc        87           tot       1.00000  
      89  cha089                  89      32.11720      37.21799     -80.41561             0        89     s37206n80447w         0         0         0         1           sdc        88           tot       1.00000  
      90  cha090                  90      28.03020      37.21777     -80.41485             0        90     s37206n80447w         0         0         0         1           sdc        89           tot       1.00000  
      91  cha091                  91      23.54620      37.21763     -80.41346             0        91     s37206n80447w         0         0         0         1           sdc        90           tot       1.00000  
      92  cha092                  92      38.07690      37.21692     -80.44344             0        92     s37206n80447w         0         0         0         1           sdc       166           tot       1.00000  
      93  cha093                  93      11.45280      37.21609     -80.43571             0        93     s37206n80447w         0         0         0         1           sdc        63           tot       1.00000  
      94  cha094                  94      33.08450      37.21793     -80.44308             0        94     s37206n80447w         0         0         0         1           sdc        92           tot       1.00000  
      95  cha095                  95      46.62490      37.21731     -80.44464             0        95     s37206n80447w         0         0         0         1           sdc       166           tot       1.00000  
      96  cha096                  96       4.09970      37.21380     -80.43183             0        96     s37206n80447w         0         0         0         1           sdc        67           tot       1.00000  
      97  cha097                  97       7.63970      37.21540     -80.43468             0        97     s37206n80447w         0         0         0         1           sdc        93           tot       1.00000  
      98  cha098                  98      38.53410      37.21895     -80.44646             0        98     s37206n80447w         0         0         0         1           sdc        95           tot       1.00000  
      99  cha099                  99      30.91020      37.21860     -80.44272             0        99     s37206n80447w         0         0         0         1           sdc        94           tot       1.00000  
     100  cha100                 100       6.49000      37.21989     -80.43729             0       100     s37206n80447w         0         0         0         1           sdc        66           tot       1.00000  
     101  cha101                 101      15.26920      37.21826     -80.41174             0       101     s37206n80447w         0         0         0         1           sdc        91           tot       1.00000  
     102  cha102                 102      12.20800      37.21725     -80.42354             0       102     s37206n80447w         0         0         0         1           sdc        80           tot       1.00000  
     103  cha103                 103       7.35160      37.21736     -80.42306             0       103     s37206n80447w         0         0         0         1           sdc       102           tot       1.00000  
     104  cha104                 104       4.56280      37.21775     -80.42296             0       104     s37206n80447w         0         0         0         1           sdc       102           tot       1.00000  
     105  cha105                 105       7.99870      37.21747     -80.42648             0       105     s37206n80447w         0         0         0         1           sdc        78           tot       1.00000  
     106  cha106                 106      11.95570      37.21619     -80.42357             0       106     s37206n80447w         0         0         0         1           sdc        81           tot       1.00000  
     107  cha107                 107      27.22170      37.21652     -80.41793             0       107     s37206n80447w         0         0         0         1           sdc        83           tot       1.00000  
     108  cha108                 108       3.52580      37.21563     -80.43525             0       108     s37206n80447w         0         0         0         1           sdc        93           tot       1.00000  
     109  cha109                 109      15.62750      37.21518     -80.41545             0       109     s37206n80447w         0         0         0         1           sdc       107           tot       1.00000  
     110  cha110                 110       8.32140      37.21474     -80.42202             0       110     s37206n80447w         0         0         0         1           sdc       106           tot       1.00000  
     111  cha111                 111       3.86980      37.21463     -80.41692             0       111     s37206n80447w         0         0         0         1           sdc       107           tot       1.00000  
     112  cha112                 112       4.31400      37.21536     -80.43000             0       112     s37206n80447w         0         0         0         1           sdc        75           tot       1.00000  
     113  cha113                 113       4.22040      37.21899     -80.41364             0       113     s37206n80447w         0         0         0         1           sdc        88           tot       1.00000  
     114  cha114                 114       4.69050      37.21912     -80.41943             0       114     s37206n80447w         0         0         0         1           sdc        84           tot       1.00000  
     115  cha115                 115       4.71190      37.21895     -80.41521             0       115     s37206n80447w         0         0         0         1           sdc        87           tot       1.00000  
     116  cha116                 116       5.80650      37.21869     -80.43757             0       116     s37206n80447w         0         0         0         1           sdc        64           tot       1.00000  
     117  cha117                 117       2.68300      37.21899     -80.42560             0       117     s37206n80447w         0         0         0         1           sdc       105           tot       1.00000  
     118  cha118                 118       5.39750      37.21837     -80.42199             0       118     s37206n80447w         0         0         0         1           sdc       103           tot       1.00000  
     119  cha119                 119       2.02600      37.21858     -80.42271             0       119     s37206n80447w         0         0         0         1           sdc       104           tot       1.00000  
     120  cha120                 120       2.07270      37.21876     -80.42630             0       120     s37206n80447w         0         0         0         1           sdc       105           tot       1.00000  
     121  cha121                 121       1.57310      37.21846     -80.43552             0       121     s37206n80447w         0         0         0         1           sdc        69           tot       1.00000  
     122  cha122                 122       7.64430      37.21773     -80.41232             0       122     s37206n80447w         0         0         0         1           sdc        91           tot       1.00000  
     123  cha123                 123       4.75760      37.21746     -80.41172             0       123     s37206n80447w         0         0         0         1           sdc       122           tot       1.00000  
     124  cha124                 124       4.33320      37.21801     -80.43521             0       124     s37206n80447w         0         0         0         1           sdc        71           tot       1.00000  
     125  cha125                 125       1.81110      37.21563     -80.42435             0       125     s37206n80447w         0         0         0         1           sdc       106           tot       1.00000  
     126  cha126                 126       2.87900      37.21604     -80.43658             0       126     s37206n80447w         0         0         0         1           sdc       157           tot       1.00000  
     127  cha127                 127       2.65370      37.21606     -80.45527             0       127     s37206n80447w         0         0         0         1           sdc       181           tot       1.00000  
     128  cha128                 128      10.73410      37.21655     -80.42087             0       128     s37206n80447w         0         0         0         1           sdc        82           tot       1.00000  
     129  cha129                 129       2.73150      37.21618     -80.43155             0       129     s37206n80447w         0         0         0         1           sdc        72           tot       1.00000  
     130  cha130                 130       1.69600      37.21680     -80.42442             0       130     s37206n80447w         0         0         0         1           sdc        79           tot       1.00000  
     131  cha131                 131       2.39940      37.21645     -80.45482             0       131     s37206n80447w         0         0         0         1           sdc       181           tot       1.00000  
     132  cha132                 132       2.29120      37.21736     -80.41224             0       132     s37206n80447w         0         0         0         1           sdc       122           tot       1.00000  
     133  cha133                 133       2.12820      37.21717     -80.41076             0       133     s37206n80447w         0         0         0         1           sdc       123           tot       1.00000  
     134  cha134                 134       3.00400      37.21733     -80.41379             0       134     s37206n80447w         0         0         0         1           sdc        90           tot       1.00000  
     135  cha135                 135       1.49270      37.21726     -80.41132             0       135     s37206n80447w         0         0         0         1           sdc       123           tot       1.00000  
     136  cha136                 136       1.49710      37.21737     -80.42296             0       136     s37206n80447w         0         0         0         1           sdc       103           tot       1.00000  
     137  cha137                 137       3.85950      37.21752     -80.40796             0       137     s37206n80447w         0         0         0         1           sdc        37           tot       1.00000  
     138  cha138                 138       2.62910      37.21746     -80.45070             0       138     s37206n80447w         0         0         0         1           sdc       180           tot       1.00000  