exco.exc: written by SWAT+ editor v2.3.3 on 2025-03-05 17:01 for SWAT+ rev.60.5.7
name                            om              pest              path              hmet              salt  
pt042                        pt042              null              null              null              null  
