hru.con: written by SWAT+ editor v2.3.3 on 2025-03-05 17:01 for SWAT+ rev.60.5.7
      id  name                gis_id          area           lat           lon          elev       hru               wst       cst      ovfl      rule   out_tot  
       1  hru001                   1       2.78380      37.22350     -80.41446     640.08273         1     s37206n80447w         0         0         0         0  
       2  hru002                   2       0.46070      37.22279     -80.41463     634.87584         2     s37206n80447w         0         0         0         0  
       3  hru003                   3       3.95850      37.22278     -80.41781     638.62953         3     s37206n80447w         0         0         0         0  
       4  hru004                   4       1.84520      37.22186     -80.41786     630.25054         4     s37206n80447w         0         0         0         0  
       5  hru005                   5       3.33540      37.22207     -80.41313     640.82305         5     s37206n80447w         0         0         0         0  
       6  hru006                   6       0.47420      37.22242     -80.41398     634.36946         6     s37206n80447w         0         0         0         0  
       7  hru007                   7       0.72260      37.22227     -80.41525     636.68101         7     s37206n80447w         0         0         0         0  
       8  hru008                   8       0.41880      37.22190     -80.41518     631.54967         8     s37206n80447w         0         0         0         0  
       9  hru009                   9       1.88420      37.22153     -80.41620     636.55185         9     s37206n80447w         0         0         0         0  
      10  hru010                  10       0.94470      37.22148     -80.41667     630.03980        10     s37206n80447w         0         0         0         0  
      11  hru011                  11       3.00610      37.22089     -80.41454     639.43648        11     s37206n80447w         0         0         0         0  
      12  hru012                  12       0.13960      37.22118     -80.41520     633.11819        12     s37206n80447w         0         0         0         0  
      13  hru013                  13       4.35380      37.22031     -80.41780     633.15345        13     s37206n80447w         0         0         0         0  
      14  hru014                  14       2.33780      37.21972     -80.41802     625.74429        14     s37206n80447w         0         0         0         0  
      15  hru015                  15       3.45550      37.22344     -80.42593     628.46494        15     s37206n80447w         0         0         0         0  
      16  hru016                  16       0.34340      37.22313     -80.42662     622.56756        16     s37206n80447w         0         0         0         0  
      17  hru017                  17       1.26150      37.22406     -80.42937     619.31359        17     s37206n80447w         0         0         0         0  
      18  hru018                  18       0.76140      37.22377     -80.42990     613.73733        18     s37206n80447w         0         0         0         0  
      19  hru019                  19       1.28820      37.22372     -80.43263     617.33085        19     s37206n80447w         0         0         0         0  
      20  hru020                  20       0.79200      37.22288     -80.43185     613.71427        20     s37206n80447w         0         0         0         0  
      21  hru021                  21       3.60100      37.22255     -80.42822     623.37834        21     s37206n80447w         0         0         0         0  
      22  hru022                  22       1.73640      37.22318     -80.42890     616.15964        22     s37206n80447w         0         0         0         0  
      23  hru023                  23       1.53480      37.22379     -80.43416     622.06314        23     s37206n80447w         0         0         0         0  
      24  hru024                  24       0.40660      37.22327     -80.43293     615.56886        24     s37206n80447w         0         0         0         0  
      25  hru025                  25       2.55650      37.22254     -80.42367     632.12623        25     s37206n80447w         0         0         0         0  
      26  hru026                  26       0.57550      37.22230     -80.42421     629.72528        26     s37206n80447w         0         0         0         0  
      27  hru027                  27       2.63760      37.22299     -80.42181     635.21872        27     s37206n80447w         0         0         0         0  
      28  hru028                  28       0.37890      37.22253     -80.42292     632.15228        28     s37206n80447w         0         0         0         0  
      29  hru029                  29       0.37720      37.22337     -80.43100     614.23303        29     s37206n80447w         0         0         0         0  
      30  hru030                  30       0.85560      37.22284     -80.43056     613.24719        30     s37206n80447w         0         0         0         0  
      31  hru031                  31       1.26830      37.22305     -80.43393     620.79950        31     s37206n80447w         0         0         0         0  
      32  hru032                  32       1.29240      37.22245     -80.43227     613.62736        32     s37206n80447w         0         0         0         0  
      33  hru033                  33       3.90450      37.22253     -80.43597     626.87822        33     s37206n80447w         0         0         0         0  
      34  hru034                  34       0.76580      37.22170     -80.43512     619.15161        34     s37206n80447w         0         0         0         0  
      35  hru035                  35       0.68640      37.22246     -80.43401     620.59120        35     s37206n80447w         0         0         0         0  
      36  hru036                  36       2.56880      37.22171     -80.43210     613.12340        36     s37206n80447w         0         0         0         0  
      37  hru037                  37       1.77230      37.22197     -80.42121     636.14394        37     s37206n80447w         0         0         0         0  
      38  hru038                  38       2.16860      37.22157     -80.42186     634.25422        38     s37206n80447w         0         0         0         0  
      39  hru039                  39       1.97810      37.22203     -80.42623     627.93580        39     s37206n80447w         0         0         0         0  
      40  hru040                  40       1.09570      37.22204     -80.42682     625.63348        40     s37206n80447w         0         0         0         0  
      41  hru041                  41       1.45990      37.22055     -80.43305     618.37146        41     s37206n80447w         0         0         0         0  
      42  hru042                  42       3.85220      37.22061     -80.43262     612.98253        42     s37206n80447w         0         0         0         0  
      43  hru043                  43       2.25940      37.22135     -80.43647     624.10007        43     s37206n80447w         0         0         0         0  
      44  hru044                  44       0.39160      37.22093     -80.43529     617.57048        44     s37206n80447w         0         0         0         0  
      45  hru045                  45       1.66460      37.22175     -80.42926     621.13403        45     s37206n80447w         0         0         0         0  
      46  hru046                  46       0.31520      37.22177     -80.43015     617.63959        46     s37206n80447w         0         0         0         0  
      47  hru047                  47       0.15780      37.22188     -80.42543     627.84221        47     s37206n80447w         0         0         0         0  
      48  hru048                  48       0.31730      37.22183     -80.42541     627.59565        48     s37206n80447w         0         0         0         0  
      49  hru049                  49       0.42990      37.22152     -80.42482     628.29681        49     s37206n80447w         0         0         0         0  
      50  hru050                  50       1.82670      37.22123     -80.42418     632.76307        50     s37206n80447w         0         0         0         0  
      51  hru051                  51       0.10470      37.22148     -80.43052     614.44986        51     s37206n80447w         0         0         0         0  
      52  hru052                  52       0.11290      37.22132     -80.43003     619.55890        52     s37206n80447w         0         0         0         0  
      53  hru053                  53       0.02900      37.22131     -80.43145     612.11034        53     s37206n80447w         0         0         0         0  
      54  hru054                  54       1.88020      37.22073     -80.42512     632.24104        54     s37206n80447w         0         0         0         0  
      55  hru055                  55       0.20530      37.22134     -80.42591     626.74574        55     s37206n80447w         0         0         0         0  
      56  hru056                  56       0.00340      37.22158     -80.43068     614.50000        56     s37206n80447w         0         0         0         0  
      57  hru057                  57       2.69200      37.22066     -80.42808     626.99183        57     s37206n80447w         0         0         0         0  
      58  hru058                  58       0.27750      37.22107     -80.42938     621.70847        58     s37206n80447w         0         0         0         0  
      59  hru059                  59       0.75530      37.22008     -80.43117     615.93499        59     s37206n80447w         0         0         0         0  
      60  hru060                  60       3.51540      37.21950     -80.43022     622.55618        60     s37206n80447w         0         0         0         0  
      61  hru061                  61       0.20030      37.22107     -80.43073     614.69146        61     s37206n80447w         0         0         0         0  
      62  hru062                  62       1.85080      37.22031     -80.42934     623.69332        62     s37206n80447w         0         0         0         0  
      63  hru063                  63       1.44180      37.22003     -80.43669     620.80448        63     s37206n80447w         0         0         0         0  
      64  hru064                  64       0.13130      37.21878     -80.43605     614.27266        64     s37206n80447w         0         0         0         0  
      65  hru065                  65       0.17160      37.22060     -80.43494     616.72261        65     s37206n80447w         0         0         0         0  
      66  hru066                  66       1.05620      37.22029     -80.43417     613.90418        66     s37206n80447w         0         0         0         0  
      67  hru067                  67       1.09650      37.21989     -80.43478     618.19197        67     s37206n80447w         0         0         0         0  
      68  hru068                  68       2.18530      37.21947     -80.43380     611.96348        68     s37206n80447w         0         0         0         0  
      69  hru069                  69       0.52270      37.21963     -80.43586     617.78133        69     s37206n80447w         0         0         0         0  
      70  hru070                  70       1.68040      37.21887     -80.43503     612.17222        70     s37206n80447w         0         0         0         0  
      71  hru071                  71       0.91760      37.21864     -80.43326     611.11901        71     s37206n80447w         0         0         0         0  
      72  hru072                  72       0.91230      37.21835     -80.43206     619.72882        72     s37206n80447w         0         0         0         0  
      73  hru073                  73       0.27170      37.21840     -80.43541     612.35296        73     s37206n80447w         0         0         0         0  
      74  hru074                  74       5.19600      37.22207     -80.43832     629.23170        74     s37206n80447w         0         0         0         0  
      75  hru075                  75       1.29400      37.22027     -80.43791     620.94490        75     s37206n80447w         0         0         0         0  
      76  hru076                  76       1.41630      37.22156     -80.43899     625.97317        76     s37206n80447w         0         0         0         0  
      77  hru077                  77       0.31300      37.21818     -80.43671     614.44920        77     s37206n80447w         0         0         0         0  
      78  hru078                  78       4.62980      37.21942     -80.43884     621.39930        78     s37206n80447w         0         0         0         0  
      79  hru079                  79       1.17670      37.21873     -80.43763     616.36186        79     s37206n80447w         0         0         0         0  
      80  hru080                  80       0.29550      37.21882     -80.43647     617.28426        80     s37206n80447w         0         0         0         0  
      81  hru081                  81       2.25210      37.21701     -80.43469     611.47929        81     s37206n80447w         0         0         0         0  
      82  hru082                  82       4.20850      37.21716     -80.43882     616.71493        82     s37206n80447w         0         0         0         0  
      83  hru083                  83       0.82330      37.21609     -80.43831     609.97802        83     s37206n80447w         0         0         0         0  
      84  hru084                  84       2.60120      37.21728     -80.43743     615.14255        84     s37206n80447w         0         0         0         0  
      85  hru085                  85       0.27780      37.21611     -80.43673     609.15515        85     s37206n80447w         0         0         0         0  
      86  hru086                  86       0.36150      37.21648     -80.43458     610.99115        86     s37206n80447w         0         0         0         0  
      87  hru087                  87       0.05080      37.21543     -80.43402     616.59646        87     s37206n80447w         0         0         0         0  
      88  hru088                  88       1.12230      37.21683     -80.43511     611.58977        88     s37206n80447w         0         0         0         0  
      89  hru089                  89       0.04710      37.21574     -80.43432     616.00000        89     s37206n80447w         0         0         0         0  
      90  hru090                  90       3.20970      37.21646     -80.44056     615.63710        90     s37206n80447w         0         0         0         0  
      91  hru091                  91       0.38840      37.21535     -80.44010     607.42482        91     s37206n80447w         0         0         0         0  
      92  hru092                  92       1.71300      37.21287     -80.43141     621.66900        92     s37206n80447w         0         0         0         0  
      93  hru093                  93       2.38670      37.21018     -80.42771     631.12260        93     s37206n80447w         0         0         0         0  
      94  hru094                  94       0.44200      37.21665     -80.43533     614.38416        94     s37206n80447w         0         0         0         0  
      95  hru095                  95       0.69470      37.21442     -80.43332     618.51807        95     s37206n80447w         0         0         0         0  
      96  hru096                  96       0.37950      37.21680     -80.43591     611.48827        96     s37206n80447w         0         0         0         0  
      97  hru097                  97       0.10620      37.21663     -80.43571     612.82768        97     s37206n80447w         0         0         0         0  
      98  hru098                  98       1.25400      37.21506     -80.43914     611.29242        98     s37206n80447w         0         0         0         0  
      99  hru099                  99       0.64650      37.21521     -80.43938     607.41206        99     s37206n80447w         0         0         0         0  
     100  hru100                 100       0.05540      37.21631     -80.43524     614.08123       100     s37206n80447w         0         0         0         0  
     101  hru101                 101       0.23190      37.21614     -80.43558     608.72402       101     s37206n80447w         0         0         0         0  
     102  hru102                 102       1.73690      37.21458     -80.44105     610.75560       102     s37206n80447w         0         0         0         0  
     103  hru103                 103       0.93700      37.21440     -80.44118     606.71558       103     s37206n80447w         0         0         0         0  
     104  hru104                 104       0.17250      37.21597     -80.43614     608.46319       104     s37206n80447w         0         0         0         0  
     105  hru105                 105       0.26050      37.21551     -80.43465     615.22035       105     s37206n80447w         0         0         0         0  
     106  hru106                 106       0.44260      37.21551     -80.43476     612.13037       106     s37206n80447w         0         0         0         0  
     107  hru107                 107       1.01570      37.21556     -80.43757     608.44669       107     s37206n80447w         0         0         0         0  
     108  hru108                 108       1.19590      37.21489     -80.43696     615.79229       108     s37206n80447w         0         0         0         0  
     109  hru109                 109       0.51650      37.21559     -80.43576     610.83311       109     s37206n80447w         0         0         0         0  
     110  hru110                 110       3.00930      37.21472     -80.43520     618.74692       110     s37206n80447w         0         0         0         0  
     111  hru111                 111       0.12420      37.21546     -80.43855     607.72464       111     s37206n80447w         0         0         0         0  
     112  hru112                 112       0.15660      37.21495     -80.43850     609.71648       112     s37206n80447w         0         0         0         0  
     113  hru113                 113       0.40300      37.21481     -80.43805     613.23772       113     s37206n80447w         0         0         0         0  
     114  hru114                 114       0.23220      37.21486     -80.44045     606.60336       114     s37206n80447w         0         0         0         0  
     115  hru115                 115       0.00330      37.21482     -80.43999     608.18182       115     s37206n80447w         0         0         0         0  
     116  hru116                 116       0.63110      37.21447     -80.44011     608.25812       116     s37206n80447w         0         0         0         0  
     117  hru117                 117       2.15440      37.21364     -80.43904     614.38001       117     s37206n80447w         0         0         0         0  
     118  hru118                 118       0.85720      37.21208     -80.43113     623.92091       118     s37206n80447w         0         0         0         0  
     119  hru119                 119       3.86810      37.21112     -80.43029     629.80900       119     s37206n80447w         0         0         0         0  
     120  hru120                 120       0.51020      37.21369     -80.43398     624.22050       120     s37206n80447w         0         0         0         0  
     121  hru121                 121       1.70110      37.21313     -80.43358     626.86767       121     s37206n80447w         0         0         0         0  
     122  hru122                 122       0.54390      37.21416     -80.43730     616.73433       122     s37206n80447w         0         0         0         0  
     123  hru123                 123       2.43880      37.21390     -80.43644     620.25299       123     s37206n80447w         0         0         0         0  
     124  hru124                 124       1.04010      37.21298     -80.43689     619.09066       124     s37206n80447w         0         0         0         0  
     125  hru125                 125       6.24210      37.21242     -80.43557     624.25153       125     s37206n80447w         0         0         0         0  
     126  hru126                 126       0.02570      37.21383     -80.44186     606.07004       126     s37206n80447w         0         0         0         0  
     127  hru127                 127       0.60300      37.21318     -80.44130     608.54179       127     s37206n80447w         0         0         0         0  
     128  hru128                 128       0.48040      37.21286     -80.44083     611.74147       128     s37206n80447w         0         0         0         0  
     129  hru129                 129       0.86640      37.21306     -80.43964     614.90559       129     s37206n80447w         0         0         0         0  
     130  hru130                 130       0.26680      37.21271     -80.44021     612.58583       130     s37206n80447w         0         0         0         0  
     131  hru131                 131       2.25650      37.21219     -80.43820     620.93623       131     s37206n80447w         0         0         0         0  
     132  hru132                 132       0.29300      37.21249     -80.43925     615.71911       132     s37206n80447w         0         0         0         0  
     133  hru133                 133       0.55330      37.21208     -80.44021     614.23785       133     s37206n80447w         0         0         0         0  
     134  hru134                 134       1.38030      37.21147     -80.44001     620.04354       134     s37206n80447w         0         0         0         0  
     135  hru135                 135       0.11180      37.21227     -80.43962     615.29875       135     s37206n80447w         0         0         0         0  
     136  hru136                 136       1.51330      37.21141     -80.43874     624.26571       136     s37206n80447w         0         0         0         0  
     137  hru137                 137       1.86500      37.22170     -80.44005     625.06874       137     s37206n80447w         0         0         0         0  
     138  hru138                 138       0.28560      37.22114     -80.44080     619.21639       138     s37206n80447w         0         0         0         0  
     139  hru139                 139       2.84300      37.22336     -80.44183     628.33609       139     s37206n80447w         0         0         0         0  
     140  hru140                 140       0.58050      37.22257     -80.44162     622.76072       140     s37206n80447w         0         0         0         0  
     141  hru141                 141       2.91360      37.22376     -80.44479     631.43266       141     s37206n80447w         0         0         0         0  
     142  hru142                 142       0.13460      37.22313     -80.44464     625.64116       142     s37206n80447w         0         0         0         0  
     143  hru143                 143       4.65080      37.22213     -80.44403     627.22833       143     s37206n80447w         0         0         0         0  
     144  hru144                 144       0.88560      37.22185     -80.44337     620.16972       144     s37206n80447w         0         0         0         0  
     145  hru145                 145       1.48650      37.22290     -80.44555     628.63491       145     s37206n80447w         0         0         0         0  
     146  hru146                 146       0.07800      37.22282     -80.44467     624.52308       146     s37206n80447w         0         0         0         0  
     147  hru147                 147       1.84590      37.22248     -80.44053     627.15916       147     s37206n80447w         0         0         0         0  
     148  hru148                 148       0.28230      37.22207     -80.44125     620.54942       148     s37206n80447w         0         0         0         0  
     149  hru149                 149       1.44570      37.22223     -80.44253     623.81552       149     s37206n80447w         0         0         0         0  
     150  hru150                 150       0.09370      37.22112     -80.44227     616.86873       150     s37206n80447w         0         0         0         0  
     151  hru151                 151       0.08710      37.22159     -80.44112     621.70608       151     s37206n80447w         0         0         0         0  
     152  hru152                 152       0.15300      37.22138     -80.44133     618.53268       152     s37206n80447w         0         0         0         0  
     153  hru153                 153       2.41150      37.21981     -80.44057     623.17350       153     s37206n80447w         0         0         0         0  
     154  hru154                 154       0.27240      37.22098     -80.44165     617.48789       154     s37206n80447w         0         0         0         0  
     155  hru155                 155       0.20550      37.22094     -80.44299     619.86861       155     s37206n80447w         0         0         0         0  
     156  hru156                 156       0.07310      37.22088     -80.44244     616.17100       156     s37206n80447w         0         0         0         0  
     157  hru157                 157       1.96140      37.21992     -80.44403     623.50882       157     s37206n80447w         0         0         0         0  
     158  hru158                 158       0.18420      37.21927     -80.44311     615.36265       158     s37206n80447w         0         0         0         0  
     159  hru159                 159       3.67050      37.22000     -80.44227     619.94685       159     s37206n80447w         0         0         0         0  
     160  hru160                 160       0.62470      37.21983     -80.44233     614.02849       160     s37206n80447w         0         0         0         0  
     161  hru161                 161       1.60290      37.21875     -80.44407     619.08871       161     s37206n80447w         0         0         0         0  
     162  hru162                 162       0.39450      37.21809     -80.44327     611.67478       162     s37206n80447w         0         0         0         0  
     163  hru163                 163       0.41320      37.21863     -80.44268     612.35697       163     s37206n80447w         0         0         0         0  
     164  hru164                 164       1.46280      37.21862     -80.44177     619.18841       164     s37206n80447w         0         0         0         0  
     165  hru165                 165       1.85510      37.21785     -80.44111     621.60805       165     s37206n80447w         0         0         0         0  
     166  hru166                 166       0.09150      37.21802     -80.44221     615.23825       166     s37206n80447w         0         0         0         0  
     167  hru167                 167       0.11350      37.21799     -80.44294     611.46608       167     s37206n80447w         0         0         0         0  
     168  hru168                 168       0.11420      37.21793     -80.44255     615.20053       168     s37206n80447w         0         0         0         0  
     169  hru169                 169       2.00580      37.21721     -80.44290     615.73786       169     s37206n80447w         0         0         0         0  
     170  hru170                 170       0.98920      37.21696     -80.44355     610.23180       170     s37206n80447w         0         0         0         0  
     171  hru171                 171       4.66240      37.22318     -80.44831     632.20747       171     s37206n80447w         0         0         0         0  
     172  hru172                 172       0.55790      37.22214     -80.44804     625.88027       172     s37206n80447w         0         0         0         0  
     173  hru173                 173       7.16190      37.22255     -80.45179     634.94240       173     s37206n80447w         0         0         0         0  
     174  hru174                 174       1.61530      37.22277     -80.45110     629.56924       174     s37206n80447w         0         0         0         0  
     175  hru175                 175       1.60790      37.22269     -80.44679     629.42092       175     s37206n80447w         0         0         0         0  
     176  hru176                 176       0.21740      37.22217     -80.44746     626.01564       176     s37206n80447w         0         0         0         0  
     177  hru177                 177       1.42750      37.22129     -80.45040     632.32056       177     s37206n80447w         0         0         0         0  
     178  hru178                 178       0.20960      37.22201     -80.44952     627.10115       178     s37206n80447w         0         0         0         0  
     179  hru179                 179       1.88040      37.22152     -80.44664     627.69092       179     s37206n80447w         0         0         0         0  
     180  hru180                 180       0.19790      37.22082     -80.44735     623.07377       180     s37206n80447w         0         0         0         0  
     181  hru181                 181       0.66750      37.22133     -80.44862     624.23311       181     s37206n80447w         0         0         0         0  
     182  hru182                 182       1.52180      37.22103     -80.44937     628.03693       182     s37206n80447w         0         0         0         0  