hyd-sed-lte.cha: written by SWAT+ editor v2.3.3 on 2025-03-05 17:01 for SWAT+ rev.60.5.7
name                         order            wd            dp           slp           len          mann             k     erod_fact      cov_fact          sinu        eq_slp           d50          clay        carbon        dry_bd      side_slp      bed_load           fps           fpn        n_conc        p_conc         p_bio  description
hydcha001                        2       0.63107       0.08071       0.00407       0.21170       0.05000       1.00000       0.01000       0.00500       1.05000       0.00100      12.00000      50.00000       0.04000       1.00000       0.50000       0.50000       0.00001       0.10000       0.00000       0.00000       0.00000  
hydcha002                        2       0.58957       0.07713       0.00773       0.33490       0.05000       1.00000       0.01000       0.00500       1.05000       0.00100      12.00000      50.00000       0.04000       1.00000       0.50000       0.50000       0.00001       0.10000       0.00000       0.00000       0.00000  
hydcha003                        2       0.46075       0.06544       0.03974       0.26680       0.05000       1.00000       0.01000       0.00500       1.05000       0.00100      12.00000      50.00000       0.04000       1.00000       0.50000       0.50000       0.00001       0.10000       0.00000       0.00000       0.00000  
hydcha004                        1       0.13264       0.02853       0.00621       0.06990       0.05000       1.00000       0.01000       0.00500       1.05000       0.00100      12.00000      50.00000       0.04000       1.00000       0.50000       0.50000       0.00001       0.10000       0.00000       0.00000       0.00000  
hydcha005                        2       0.32577       0.05194       0.01700       0.21480       0.05000       1.00000       0.01000       0.00500       1.05000       0.00100      12.00000      50.00000       0.04000       1.00000       0.50000       0.50000       0.00001       0.10000       0.00000       0.00000       0.00000  
hydcha006                        1       0.16189       0.03259       0.03391       0.10460       0.05000       1.00000       0.01000       0.00500       1.05000       0.00100      12.00000      50.00000       0.04000       1.00000       0.50000       0.50000       0.00001       0.10000       0.00000       0.00000       0.00000  
hydcha007                        1       0.18533       0.03566       0.00926       0.20810       0.05000       1.00000       0.01000       0.00500       1.05000       0.00100      12.00000      50.00000       0.04000       1.00000       0.50000       0.50000       0.00001       0.10000       0.00000       0.00000       0.00000  
hydcha008                        2       0.28756       0.04779       0.01459       0.10090       0.05000       1.00000       0.01000       0.00500       1.05000       0.00100      12.00000      50.00000       0.04000       1.00000       0.50000       0.50000       0.00001       0.10000       0.00000       0.00000       0.00000  
hydcha009                        2       0.25213       0.04378       0.00498       0.06350       0.05000       1.00000       0.01000       0.00500       1.05000       0.00100      12.00000      50.00000       0.04000       1.00000       0.50000       0.50000       0.00001       0.10000       0.00000       0.00000       0.00000  
hydcha010                        1       0.10940       0.02509       0.02498       0.03340       0.05000       1.00000       0.01000       0.00500       1.05000       0.00100      12.00000      50.00000       0.04000       1.00000       0.50000       0.50000       0.00001       0.10000       0.00000       0.00000       0.00000  
hydcha011                        1       0.12631       0.02762       0.01706       0.00200       0.05000       1.00000       0.01000       0.00500       1.05000       0.00100      12.00000      50.00000       0.04000       1.00000       0.50000       0.50000       0.00001       0.10000       0.00000       0.00000       0.00000  
hydcha012                        1       0.18160       0.03518       0.02431       0.18360       0.05000       1.00000       0.01000       0.00500       1.05000       0.00100      12.00000      50.00000       0.04000       1.00000       0.50000       0.50000       0.00001       0.10000       0.00000       0.00000       0.00000  
hydcha013                        1       0.29964       0.04912       0.01674       0.37880       0.05000       1.00000       0.01000       0.00500       1.05000       0.00100      12.00000      50.00000       0.04000       1.00000       0.50000       0.50000       0.00001       0.10000       0.00000       0.00000       0.00000  
hydcha014                        1       0.10647       0.02464       0.02946       0.00970       0.05000       1.00000       0.01000       0.00500       1.05000       0.00100      12.00000      50.00000       0.04000       1.00000       0.50000       0.50000       0.00001       0.10000       0.00000       0.00000       0.00000  
hydcha015                        1       0.15787       0.03204       0.00622       0.11460       0.05000       1.00000       0.01000       0.00500       1.05000       0.00100      12.00000      50.00000       0.04000       1.00000       0.50000       0.50000       0.00001       0.10000       0.00000       0.00000       0.00000  
hydcha016                        1       0.18129       0.03514       0.06280       0.15810       0.05000       1.00000       0.01000       0.00500       1.05000       0.00100      12.00000      50.00000       0.04000       1.00000       0.50000       0.50000       0.00001       0.10000       0.00000       0.00000       0.00000  
hydcha017                        1       0.12119       0.02687       0.01760       0.19420       0.05000       1.00000       0.01000       0.00500       1.05000       0.00100      12.00000      50.00000       0.04000       1.00000       0.50000       0.50000       0.00001       0.10000       0.00000       0.00000       0.00000  
hydcha018                        1       0.16492       0.03299       0.03049       0.17570       0.05000       1.00000       0.01000       0.00500       1.05000       0.00100      12.00000      50.00000       0.04000       1.00000       0.50000       0.50000       0.00001       0.10000       0.00000       0.00000       0.00000  
hydcha019                        1       0.15886       0.03218       0.02449       0.10340       0.05000       1.00000       0.01000       0.00500       1.05000       0.00100      12.00000      50.00000       0.04000       1.00000       0.50000       0.50000       0.00001       0.10000       0.00000       0.00000       0.00000  
hydcha020                        1       0.12422       0.02731       0.00001       0.06610       0.05000       1.00000       0.01000       0.00500       1.05000       0.00100      12.00000      50.00000       0.04000       1.00000       0.50000       0.50000       0.00001       0.10000       0.00000       0.00000       0.00000  
hydcha021                        3       1.03139       0.11199       0.00274       0.11940       0.05000       1.00000       0.01000       0.00500       1.05000       0.00100      12.00000      50.00000       0.04000       1.00000       0.50000       0.50000       0.00001       0.10000       0.00000       0.00000       0.00000  
hydcha022                        3       0.92111       0.10385       0.00120       0.18370       0.05000       1.00000       0.01000       0.00500       1.05000       0.00100      12.00000      50.00000       0.04000       1.00000       0.50000       0.50000       0.00001       0.10000       0.00000       0.00000       0.00000  
hydcha023                        3       0.74677       0.09030       0.00919       0.13910       0.05000       1.00000       0.01000       0.00500       1.05000       0.00100      12.00000      50.00000       0.04000       1.00000       0.50000       0.50000       0.00001       0.10000       0.00000       0.00000       0.00000  
hydcha024                        2       0.37614       0.05716       0.01270       0.13400       0.05000       1.00000       0.01000       0.00500       1.05000       0.00100      12.00000      50.00000       0.04000       1.00000       0.50000       0.50000       0.00001       0.10000       0.00000       0.00000       0.00000  
hydcha025                        2       0.39940       0.05950       0.00460       0.23140       0.05000       1.00000       0.01000       0.00500       1.05000       0.00100      12.00000      50.00000       0.04000       1.00000       0.50000       0.50000       0.00001       0.10000       0.00000       0.00000       0.00000  
hydcha026                        2       0.35277       0.05477       0.01867       0.19110       0.05000       1.00000       0.01000       0.00500       1.05000       0.00100      12.00000      50.00000       0.04000       1.00000       0.50000       0.50000       0.00001       0.10000       0.00000       0.00000       0.00000  
hydcha027                        1       0.12262       0.02708       0.04851       0.07730       0.05000       1.00000       0.01000       0.00500       1.05000       0.00100      12.00000      50.00000       0.04000       1.00000       0.50000       0.50000       0.00001       0.10000       0.00000       0.00000       0.00000  
hydcha028                        3       0.65793       0.08299       0.01090       0.08770       0.05000       1.00000       0.01000       0.00500       1.05000       0.00100      12.00000      50.00000       0.04000       1.00000       0.50000       0.50000       0.00001       0.10000       0.00000       0.00000       0.00000  
hydcha029                        3       0.58658       0.07687       0.01141       0.22150       0.05000       1.00000       0.01000       0.00500       1.05000       0.00100      12.00000      50.00000       0.04000       1.00000       0.50000       0.50000       0.00001       0.10000       0.00000       0.00000       0.00000  
hydcha030                        3       0.61391       0.07924       0.02219       0.09840       0.05000       1.00000       0.01000       0.00500       1.05000       0.00100      12.00000      50.00000       0.04000       1.00000       0.50000       0.50000       0.00001       0.10000       0.00000       0.00000       0.00000  
hydcha031                        2       0.36090       0.05561       0.06935       0.00970       0.05000       1.00000       0.01000       0.00500       1.05000       0.00100      12.00000      50.00000       0.04000       1.00000       0.50000       0.50000       0.00001       0.10000       0.00000       0.00000       0.00000  
hydcha032                        3       0.50354       0.06943       0.01402       0.01520       0.05000       1.00000       0.01000       0.00500       1.05000       0.00100      12.00000      50.00000       0.04000       1.00000       0.50000       0.50000       0.00001       0.10000       0.00000       0.00000       0.00000  
hydcha033                        2       0.29495       0.04861       0.02570       0.21260       0.05000       1.00000       0.01000       0.00500       1.05000       0.00100      12.00000      50.00000       0.04000       1.00000       0.50000       0.50000       0.00001       0.10000       0.00000       0.00000       0.00000  
hydcha034                        2       0.33606       0.05303       0.02942       0.10210       0.05000       1.00000       0.01000       0.00500       1.05000       0.00100      12.00000      50.00000       0.04000       1.00000       0.50000       0.50000       0.00001       0.10000       0.00000       0.00000       0.00000  
hydcha035                        2       0.23350       0.04160       0.01011       0.03270       0.05000       1.00000       0.01000       0.00500       1.05000       0.00100      12.00000      50.00000       0.04000       1.00000       0.50000       0.50000       0.00001       0.10000       0.00000       0.00000       0.00000  
hydcha036                        2       0.27593       0.04650       0.02356       0.11730       0.05000       1.00000       0.01000       0.00500       1.05000       0.00100      12.00000      50.00000       0.04000       1.00000       0.50000       0.50000       0.00001       0.10000       0.00000       0.00000       0.00000  
hydcha037                        2       0.33790       0.05322       0.03284       0.30950       0.05000       1.00000       0.01000       0.00500       1.05000       0.00100      12.00000      50.00000       0.04000       1.00000       0.50000       0.50000       0.00001       0.10000       0.00000       0.00000       0.00000  
hydcha038                        2       0.37229       0.05677       0.02067       0.18250       0.05000       1.00000       0.01000       0.00500       1.05000       0.00100      12.00000      50.00000       0.04000       1.00000       0.50000       0.50000       0.00001       0.10000       0.00000       0.00000       0.00000  
hydcha039                        2       0.32692       0.05206       0.02453       0.33750       0.05000       1.00000       0.01000       0.00500       1.05000       0.00100      12.00000      50.00000       0.04000       1.00000       0.50000       0.50000       0.00001       0.10000       0.00000       0.00000       0.00000  
hydcha040                        1       0.17032       0.03371       0.03679       0.21600       0.05000       1.00000       0.01000       0.00500       1.05000       0.00100      12.00000      50.00000       0.04000       1.00000       0.50000       0.50000       0.00001       0.10000       0.00000       0.00000       0.00000  
hydcha041                        1       0.21939       0.03990       0.01475       0.17330       0.05000       1.00000       0.01000       0.00500       1.05000       0.00100      12.00000      50.00000       0.04000       1.00000       0.50000       0.50000       0.00001       0.10000       0.00000       0.00000       0.00000  
hydcha042                        1       0.23378       0.04163       0.00605       0.22100       0.05000       1.00000       0.01000       0.00500       1.05000       0.00100      12.00000      50.00000       0.04000       1.00000       0.50000       0.50000       0.00001       0.10000       0.00000       0.00000       0.00000  
hydcha043                        1       0.11679       0.02621       0.01240       0.14280       0.05000       1.00000       0.01000       0.00500       1.05000       0.00100      12.00000      50.00000       0.04000       1.00000       0.50000       0.50000       0.00001       0.10000       0.00000       0.00000       0.00000  
hydcha044                        1       0.20521       0.03817       0.02806       0.22030       0.05000       1.00000       0.01000       0.00500       1.05000       0.00100      12.00000      50.00000       0.04000       1.00000       0.50000       0.50000       0.00001       0.10000       0.00000       0.00000       0.00000  
hydcha045                        1       0.12806       0.02787       0.02601       0.09560       0.05000       1.00000       0.01000       0.00500       1.05000       0.00100      12.00000      50.00000       0.04000       1.00000       0.50000       0.50000       0.00001       0.10000       0.00000       0.00000       0.00000  
hydcha046                        2       0.31446       0.05073       0.00001       0.00280       0.05000       1.00000       0.01000       0.00500       1.05000       0.00100      12.00000      50.00000       0.04000       1.00000       0.50000       0.50000       0.00001       0.10000       0.00000       0.00000       0.00000  
hydcha047                        2       0.28839       0.04789       0.00001       0.09430       0.05000       1.00000       0.01000       0.00500       1.05000       0.00100      12.00000      50.00000       0.04000       1.00000       0.50000       0.50000       0.00001       0.10000       0.00000       0.00000       0.00000  
hydcha048                        2       0.21984       0.03996       0.00001       0.02600       0.05000       1.00000       0.01000       0.00500       1.05000       0.00100      12.00000      50.00000       0.04000       1.00000       0.50000       0.50000       0.00001       0.10000       0.00000       0.00000       0.00000  
hydcha049                        1       0.17836       0.03476       0.01852       0.17240       0.05000       1.00000       0.01000       0.00500       1.05000       0.00100      12.00000      50.00000       0.04000       1.00000       0.50000       0.50000       0.00001       0.10000       0.00000       0.00000       0.00000  
hydcha050                        1       0.11696       0.02624       0.00001       0.04000       0.05000       1.00000       0.01000       0.00500       1.05000       0.00100      12.00000      50.00000       0.04000       1.00000       0.50000       0.50000       0.00001       0.10000       0.00000       0.00000       0.00000  
hydcha051                        1       0.12868       0.02796       0.04910       0.07330       0.05000       1.00000       0.01000       0.00500       1.05000       0.00100      12.00000      50.00000       0.04000       1.00000       0.50000       0.50000       0.00001       0.10000       0.00000       0.00000       0.00000  
hydcha052                        1       0.14408       0.03015       0.03718       0.15140       0.05000       1.00000       0.01000       0.00500       1.05000       0.00100      12.00000      50.00000       0.04000       1.00000       0.50000       0.50000       0.00001       0.10000       0.00000       0.00000       0.00000  
hydcha053                        1       0.19449       0.03683       0.00934       0.32870       0.05000       1.00000       0.01000       0.00500       1.05000       0.00100      12.00000      50.00000       0.04000       1.00000       0.50000       0.50000       0.00001       0.10000       0.00000       0.00000       0.00000  
hydcha054                        1       0.17415       0.03421       0.03408       0.21030       0.05000       1.00000       0.01000       0.00500       1.05000       0.00100      12.00000      50.00000       0.04000       1.00000       0.50000       0.50000       0.00001       0.10000       0.00000       0.00000       0.00000  
hydcha055                        1       0.10887       0.02501       0.03246       0.11690       0.05000       1.00000       0.01000       0.00500       1.05000       0.00100      12.00000      50.00000       0.04000       1.00000       0.50000       0.50000       0.00001       0.10000       0.00000       0.00000       0.00000  
hydcha056                        1       0.14610       0.03043       0.02774       0.09270       0.05000       1.00000       0.01000       0.00500       1.05000       0.00100      12.00000      50.00000       0.04000       1.00000       0.50000       0.50000       0.00001       0.10000       0.00000       0.00000       0.00000  
hydcha057                        1       0.10544       0.02448       0.02753       0.01670       0.05000       1.00000       0.01000       0.00500       1.05000       0.00100      12.00000      50.00000       0.04000       1.00000       0.50000       0.50000       0.00001       0.10000       0.00000       0.00000       0.00000  
hydcha058                        1       0.12886       0.02799       0.02016       0.09280       0.05000       1.00000       0.01000       0.00500       1.05000       0.00100      12.00000      50.00000       0.04000       1.00000       0.50000       0.50000       0.00001       0.10000       0.00000       0.00000       0.00000  
hydcha059                        1       0.12625       0.02761       0.02892       0.14340       0.05000       1.00000       0.01000       0.00500       1.05000       0.00100      12.00000      50.00000       0.04000       1.00000       0.50000       0.50000       0.00001       0.10000       0.00000       0.00000       0.00000  
hydcha060                        1       0.15639       0.03184       0.05933       0.15680       0.05000       1.00000       0.01000       0.00500       1.05000       0.00100      12.00000      50.00000       0.04000       1.00000       0.50000       0.50000       0.00001       0.10000       0.00000       0.00000       0.00000  
hydcha061                        1       0.12651       0.02765       0.00431       0.03820       0.05000       1.00000       0.01000       0.00500       1.05000       0.00100      12.00000      50.00000       0.04000       1.00000       0.50000       0.50000       0.00001       0.10000       0.00000       0.00000       0.00000  
hydcha062                        1       0.12525       0.02746       0.01293       0.00480       0.05000       1.00000       0.01000       0.00500       1.05000       0.00100      12.00000      50.00000       0.04000       1.00000       0.50000       0.50000       0.00001       0.10000       0.00000       0.00000       0.00000  
hydcha063                        5       2.80210       0.21804       0.00225       0.05120       0.05000       1.00000       0.01000       0.00500       1.05000       0.00100      12.00000      50.00000       0.04000       1.00000       0.50000       0.50000       0.00001       0.10000       0.00000       0.00000       0.00000  
hydcha064                        5       2.74810       0.21523       0.02661       0.15940       0.05000       1.00000       0.01000       0.00500       1.05000       0.00100      12.00000      50.00000       0.04000       1.00000       0.50000       0.50000       0.00001       0.10000       0.00000       0.00000       0.00000  
hydcha065                        5       2.71858       0.21369       0.04874       0.03230       0.05000       1.00000       0.01000       0.00500       1.05000       0.00100      12.00000      50.00000       0.04000       1.00000       0.50000       0.50000       0.00001       0.10000       0.00000       0.00000       0.00000  
hydcha066                        5       2.70506       0.21298       0.00001       0.04060       0.05000       1.00000       0.01000       0.00500       1.05000       0.00100      12.00000      50.00000       0.04000       1.00000       0.50000       0.50000       0.00001       0.10000       0.00000       0.00000       0.00000  
hydcha067                        5       2.66872       0.21107       0.01571       0.00710       0.05000       1.00000       0.01000       0.00500       1.05000       0.00100      12.00000      50.00000       0.04000       1.00000       0.50000       0.50000       0.00001       0.10000       0.00000       0.00000       0.00000  
hydcha068                        5       2.64715       0.20993       0.01387       0.03920       0.05000       1.00000       0.01000       0.00500       1.05000       0.00100      12.00000      50.00000       0.04000       1.00000       0.50000       0.50000       0.00001       0.10000       0.00000       0.00000       0.00000  
hydcha069                        3       1.08333       0.11572       0.02001       0.02380       0.05000       1.00000       0.01000       0.00500       1.05000       0.00100      12.00000      50.00000       0.04000       1.00000       0.50000       0.50000       0.00001       0.10000       0.00000       0.00000       0.00000  
hydcha070                        3       1.06721       0.11456       0.00001       0.11610       0.05000       1.00000       0.01000       0.00500       1.05000       0.00100      12.00000      50.00000       0.04000       1.00000       0.50000       0.50000       0.00001       0.10000       0.00000       0.00000       0.00000  
hydcha071                        5       2.25716       0.18877       0.00695       0.00680       0.05000       1.00000       0.01000       0.00500       1.05000       0.00100      12.00000      50.00000       0.04000       1.00000       0.50000       0.50000       0.00001       0.10000       0.00000       0.00000       0.00000  
hydcha072                        5       2.23261       0.18740       0.00001       0.41280       0.05000       1.00000       0.01000       0.00500       1.05000       0.00100      12.00000      50.00000       0.04000       1.00000       0.50000       0.50000       0.00001       0.10000       0.00000       0.00000       0.00000  
hydcha073                        5       2.20320       0.18575       0.03329       0.04410       0.05000       1.00000       0.01000       0.00500       1.05000       0.00100      12.00000      50.00000       0.04000       1.00000       0.50000       0.50000       0.00001       0.10000       0.00000       0.00000       0.00000  
hydcha074                        4       1.00703       0.11022       0.01334       0.29210       0.05000       1.00000       0.01000       0.00500       1.05000       0.00100      12.00000      50.00000       0.04000       1.00000       0.50000       0.50000       0.00001       0.10000       0.00000       0.00000       0.00000  
hydcha075                        4       1.80661       0.16273       0.00001       0.03040       0.05000       1.00000       0.01000       0.00500       1.05000       0.00100      12.00000      50.00000       0.04000       1.00000       0.50000       0.50000       0.00001       0.10000       0.00000       0.00000       0.00000  
hydcha076                        4       1.76973       0.16050       0.01048       0.12780       0.05000       1.00000       0.01000       0.00500       1.05000       0.00100      12.00000      50.00000       0.04000       1.00000       0.50000       0.50000       0.00001       0.10000       0.00000       0.00000       0.00000  
hydcha077                        4       1.74263       0.15886       0.00222       0.08870       0.05000       1.00000       0.01000       0.00500       1.05000       0.00100      12.00000      50.00000       0.04000       1.00000       0.50000       0.50000       0.00001       0.10000       0.00000       0.00000       0.00000  
hydcha078                        4       1.71867       0.15740       0.00755       0.26380       0.05000       1.00000       0.01000       0.00500       1.05000       0.00100      12.00000      50.00000       0.04000       1.00000       0.50000       0.50000       0.00001       0.10000       0.00000       0.00000       0.00000  
hydcha079                        4       1.63549       0.15228       0.00001       0.18810       0.05000       1.00000       0.01000       0.00500       1.05000       0.00100      12.00000      50.00000       0.04000       1.00000       0.50000       0.50000       0.00001       0.10000       0.00000       0.00000       0.00000  
hydcha080                        4       1.60691       0.15050       0.03864       0.13740       0.05000       1.00000       0.01000       0.00500       1.05000       0.00100      12.00000      50.00000       0.04000       1.00000       0.50000       0.50000       0.00001       0.10000       0.00000       0.00000       0.00000  
hydcha081                        3       1.51403       0.14465       0.00001       0.12160       0.05000       1.00000       0.01000       0.00500       1.05000       0.00100      12.00000      50.00000       0.04000       1.00000       0.50000       0.50000       0.00001       0.10000       0.00000       0.00000       0.00000  
hydcha082                        3       1.42454       0.13889       0.00001       0.00200       0.05000       1.00000       0.01000       0.00500       1.05000       0.00100      12.00000      50.00000       0.04000       1.00000       0.50000       0.50000       0.00001       0.10000       0.00000       0.00000       0.00000  
hydcha083                        3       1.34525       0.13369       0.00944       0.34640       0.05000       1.00000       0.01000       0.00500       1.05000       0.00100      12.00000      50.00000       0.04000       1.00000       0.50000       0.50000       0.00001       0.10000       0.00000       0.00000       0.00000  
hydcha084                        3       1.11558       0.11800       0.00277       0.00240       0.05000       1.00000       0.01000       0.00500       1.05000       0.00100      12.00000      50.00000       0.04000       1.00000       0.50000       0.50000       0.00001       0.10000       0.00000       0.00000       0.00000  
hydcha085                        3       1.07505       0.11512       0.01403       0.15900       0.05000       1.00000       0.01000       0.00500       1.05000       0.00100      12.00000      50.00000       0.04000       1.00000       0.50000       0.50000       0.00001       0.10000       0.00000       0.00000       0.00000  
hydcha086                        2       0.58366       0.07662       0.01062       0.37330       0.05000       1.00000       0.01000       0.00500       1.05000       0.00100      12.00000      50.00000       0.04000       1.00000       0.50000       0.50000       0.00001       0.10000       0.00000       0.00000       0.00000  
hydcha087                        3       0.79285       0.09397       0.02110       0.20130       0.05000       1.00000       0.01000       0.00500       1.05000       0.00100      12.00000      50.00000       0.04000       1.00000       0.50000       0.50000       0.00001       0.10000       0.00000       0.00000       0.00000  
hydcha088                        3       0.71618       0.08781       0.00001       0.05520       0.05000       1.00000       0.01000       0.00500       1.05000       0.00100      12.00000      50.00000       0.04000       1.00000       0.50000       0.50000       0.00001       0.10000       0.00000       0.00000       0.00000  
hydcha089                        3       0.65258       0.08254       0.00001       0.06340       0.05000       1.00000       0.01000       0.00500       1.05000       0.00100      12.00000      50.00000       0.04000       1.00000       0.50000       0.50000       0.00001       0.10000       0.00000       0.00000       0.00000  