ls_unit.def: written by SWAT+ editor v2.3.3 on 2025-03-05 17:01 for SWAT+ rev.60.5.7
665
      id              name          area  elem_tot  elements  
       1           rtu0011       0.85560         1        30  
       2           rtu0012       0.37720         1        29  
       3           rtu0021       1.73640         1        22  
       4           rtu0022       3.60100         1        21  
       5           rtu0031       1.09570         1        40  
       6           rtu0032       1.97810         1        39  
       7           rtu0041       0.42990         1        49  
       8           rtu0042       1.82670         1        50  
       9           rtu0051       0.57550         1        26  
      10           rtu0052       2.55650         1        25  
      11           rtu0061       0.13960         1        12  
      12           rtu0062       3.00610         1        11  
      13           rtu0071       2.16860         1        38  
      14           rtu0072       1.77230         1        37  
      15           rtu0081       0.41880         1         8  
      16           rtu0082       0.72260         1         7  
      17           rtu0091       1.29240         1        32  
      18           rtu0092       1.26830         1        31  
      19           rtu0101       0.20960         1       178  
      20           rtu0102       1.42750         1       177  
      21           rtu0111       0.79200         1        20  
      22           rtu0112       1.28820         1        19  
      23           rtu0121       0.47420         1         6  
      24           rtu0122       3.33540         1         5  
      25           rtu0131       1.61530         1       174  
      26           rtu0132       7.16190         1       173  
      27           rtu0141       0.07800         1       146  
      28           rtu0142       1.48650         1       145  
      29           rtu0151       0.37890         1        28  
      30           rtu0152       2.63760         1        27  
      31           rtu0161       0.34340         1        16  
      32           rtu0162       3.45550         1        15  
      33           rtu0171       0.40660         1        24  
      34           rtu0172       1.53480         1        23  
      35           rtu0181       0.46070         1         2  
      36           rtu0182       2.78380         1         1  
      37           rtu0191       0.13460         1       142  
      38           rtu0192       2.91360         1       141  
      39           rtu0201       0.76140         1        18  
      40           rtu0202       1.26150         1        17  
      41           rtu0211       2.18530         1        68  
      42           rtu0212       1.09650         1        67  
      43           rtu0221       3.85220         1        42  
      44           rtu0222       1.45990         1        41  
      45           rtu0231       2.56880         1        36  
      46           rtu0232       0.68640         1        35  
      47           rtu0241       0.31730         1        48  
      48           rtu0242       0.15780         1        47  
      49           rtu0251       0.94470         1        10  
      50           rtu0252       1.88420         1         9  
      51           rtu0261       0.02900         1        53  
      52           rtu0271       0.31520         1        46  
      53           rtu0272       1.66460         1        45  
      54           rtu0281       0.62220         1       188  
      55           rtu0282       0.84850         1       187  
      56           rtu0291       0.62470         1       160  
      57           rtu0292       3.67050         1       159  
      58           rtu0301       0.14050         1       192  
      59           rtu0302       0.36920         1       191  
      60           rtu0311       0.07310         1       156  
      61           rtu0312       0.20550         1       155  
      62           rtu0321       0.00990         1       193  
      63           rtu0331       1.05620         1        66  
      64           rtu0332       0.17160         1        65  
      65           rtu0341       0.27240         1       154  
      66           rtu0342       2.41150         1       153  
      67           rtu0351       0.15300         1       152  
      68           rtu0352       0.08710         1       151  
      69           rtu0361       0.16190         1       184  
      70           rtu0362       0.44280         1       183  
      71           rtu0371       0.87880         1       214  
      72           rtu0372       4.10700         1       213  
      73           rtu0381       0.66750         1       181  
      74           rtu0382       1.52180         1       182  
      75           rtu0391       0.88560         1       144  
      76           rtu0392       4.65080         1       143  
      77           rtu0401       0.58050         1       140  
      78           rtu0402       2.84300         1       139  
      79           rtu0411       0.55790         1       172  
      80           rtu0412       4.66240         1       171  
      81           rtu0421       1.84520         1         4  
      82           rtu0422       3.95850         1         3  
      83           rtu0431       0.21740         1       176  
      84           rtu0432       1.60790         1       175  
      85           rtu0441       0.76580         1        34  
      86           rtu0442       3.90450         1        33  
      87           rtu0451       0.28230         1       148  
      88           rtu0452       1.84590         1       147  
      89           rtu0461       0.00340         1        56  
      90           rtu0471       0.35170         1       194  
      91           rtu0472       0.63360         1       195  
      92           rtu0481       0.10470         1        51  
      93           rtu0482       0.11290         1        52  
      94           rtu0491       0.45360         1       198  
      95           rtu0492       3.24330         1       199  
      96           rtu0501       0.91760         1        71  
      97           rtu0502       0.91230         1        72  
      98           rtu0511       0.18420         1       158  
      99           rtu0512       1.96140         1       157  
     100           rtu0521       0.40190         1       216  
     101           rtu0522       2.18850         1       215  
     102           rtu0531       0.75530         1        59  
     103           rtu0532       3.51540         1        60  
     104           rtu0541       0.53860         1       190  
     105           rtu0542       3.01410         1       189  
     106           rtu0551       0.05970         1       186  
     107           rtu0552       1.56420         1       185  
     108           rtu0561       0.39160         1        44  
     109           rtu0562       2.25940         1        43  
     110           rtu0571       0.09370         1       150  
     111           rtu0572       1.44570         1       149  
     112           rtu0581       0.28560         1       138  
     113           rtu0582       1.86500         1       137  
     114           rtu0591       0.19790         1       180  
     115           rtu0592       1.88040         1       179  
     116           rtu0601       0.27750         1        58  
     117           rtu0602       2.69200         1        57  
     118           rtu0611       0.20530         1        55  
     119           rtu0612       1.88020         1        54  
     120           rtu0621       0.20030         1        61  
     121           rtu0622       1.85080         1        62  
     122           rtu0631       0.17250         1       104  
     123           rtu0641       0.37950         1        96  
     124           rtu0642       0.10620         1        97  
     125           rtu0651       0.44200         1        94  
     126           rtu0652       0.69470         1        95  
     127           rtu0661       1.12230         1        88  
     128           rtu0662       0.04710         1        89  
     129           rtu0671       0.36150         1        86  
     130           rtu0672       0.05080         1        87  
     131           rtu0681       2.25210         1        81  
     132           rtu0682       0.29550         1        80  
     133           rtu0691       0.27170         1        73  
     134           rtu0701       1.68040         1        70  
     135           rtu0702       0.52270         1        69  
     136           rtu0711       0.25510         1       350  
     137           rtu0712       0.00100         1       351  
     138           rtu0721       2.44500         1       352  
     139           rtu0722       0.27780         1       353  
     140           rtu0731       1.35270         1       355  
     141           rtu0732       1.18740         1       354  
     142           rtu0741       0.94790         1       378  
     143           rtu0742       0.63980         1       379  
     144           rtu0751       1.06180         1       294  
     145           rtu0752       0.54760         1       293  
     146           rtu0761       0.28430         1       292  
     147           rtu0762       0.08590         1       291  
     148           rtu0771       0.43290         1       290  
     149           rtu0772       0.40280         1       289  
     150           rtu0781       1.27950         1       276  
     151           rtu0782       3.52260         1       275  
     152           rtu0791       1.11770         1       272  
     153           rtu0792       1.48650         1       271  
     154           rtu0801       0.24060         1       264  
     155           rtu0802       1.17420         1       263  
     156           rtu0811       0.45670         1       282  
     157           rtu0812       0.19820         1       281  
     158           rtu0821       0.00350         1       286  
     159           rtu0822       0.00210         1       285  
     160           rtu0831       0.84420         1       262  
     161           rtu0832       0.67730         1       261  
     162           rtu0841       0.00500         1       208  
     163           rtu0851       1.12860         1       207  
     164           rtu0852       1.57790         1       206  
     165           rtu0861       2.33780         1        14  
     166           rtu0862       4.35380         1        13  
     167           rtu0871       0.92260         1       220  
     168           rtu0872       1.29220         1       219  
     169           rtu0881       0.77520         1       226  
     170           rtu0882       0.38960         1       225  
     171           rtu0891       0.48610         1       228  
     172           rtu0892       0.25640         1       227  
     173           rtu0901       0.30490         1       233  
     174           rtu0902       1.17510         1       234  
     175           rtu0911       0.27190         1       232  
     176           rtu0912       0.36080         1       231  
     177           rtu0921       0.98920         1       170  
     178           rtu0922       2.00580         1       169  
     179           rtu0931       0.23190         1       101  
     180           rtu0932       0.05540         1       100  
     181           rtu0941       0.11350         1       167  
     182           rtu0942       0.11420         1       168  
     183           rtu0951       0.85270         1       201  
     184           rtu0952       4.49390         1       200  
     185           rtu0961       1.71300         1        92  
     186           rtu0962       2.38670         1        93  
     187           rtu0971       0.44260         1       106  
     188           rtu0972       0.26050         1       105  
     189           rtu0981       0.85390         1       197  
     190           rtu0982       3.49890         1       196  
     191           rtu0991       0.41320         1       163  
     192           rtu0992       1.46280         1       164  
     193           rtu1001       1.29400         1        75  
     194           rtu1002       5.19600         1        74  
     195           rtu1011       0.96580         1       218  
     196           rtu1012       0.98970         1       217  
     197           rtu1021       0.27680         1       273  
     198           rtu1022       0.01680         1       274  
     199           rtu1031       0.25060         1       270  
     200           rtu1032       0.20640         1       269  
     201           rtu1041       0.65650         1       268  
     202           rtu1042       0.17640         1       267  
     203           rtu1051       1.49550         1       266  
     204           rtu1052       1.74750         1       265  
     205           rtu1061       1.01020         1       287  
     206           rtu1062       0.81300         1       288  
     207           rtu1071       1.90220         1       357  
     208           rtu1072       5.82220         1       356  
     209           rtu1081       0.51650         1       109  
     210           rtu1082       3.00930         1       110  
     211           rtu1091       2.92230         1       359  
     212           rtu1092       1.09810         1       358  
     213           rtu1101       1.55240         1       299  
     214           rtu1102       6.76900         1       300  
     215           rtu1111       0.91100         1       362  
     216           rtu1112       2.95880         1       363  
     217           rtu1121       1.46470         1       295  
     218           rtu1122       2.84930         1       296  
     219           rtu1131       1.31100         1       212  
     220           rtu1132       2.90940         1       211  
     221           rtu1141       0.46460         1       205  
     222           rtu1142       4.22590         1       204  
     223           rtu1151       1.07050         1       210  
     224           rtu1152       3.64140         1       209  
     225           rtu1161       1.17670         1        79  
     226           rtu1162       4.62980         1        78  
     227           rtu1171       0.33770         1       254  
     228           rtu1172       2.34530         1       253  
     229           rtu1181       1.54340         1       248  
     230           rtu1182       3.85410         1       247  
     231           rtu1191       0.11660         1       250  
     232           rtu1192       1.90940         1       249  
     233           rtu1201       0.28370         1       252  
     234           rtu1202       1.78900         1       251  
     235           rtu1211       0.13130         1        64  
     236           rtu1212       1.44180         1        63  
     237           rtu1221       0.08390         1       236  
     238           rtu1222       0.51160         1       235  
     239           rtu1231       0.41610         1       238  
     240           rtu1232       0.72060         1       237  
     241           rtu1241       0.00010         1       349  
     242           rtu1251       0.16670         1       297  
     243           rtu1252       1.64440         1       298  
     244           rtu1261       0.27780         1        85  
     245           rtu1262       2.60120         1        84  
     246           rtu1271       0.07900         1       312  
     247           rtu1272       2.57470         1       311  
     248           rtu1281       1.16340         1       279  
     249           rtu1282       9.57070         1       280  
     250           rtu1291       0.45610         1       344  
     251           rtu1292       2.27540         1       343  
     252           rtu1301       0.08520         1       284  
     253           rtu1302       1.61080         1       283  
     254           rtu1311       0.70980         1       306  
     255           rtu1312       1.68960         1       305  
     256           rtu1321       0.51750         1       241  
     257           rtu1322       1.77370         1       242  
     258           rtu1331       0.19650         1       244  
     259           rtu1332       1.93170         1       243  
     260           rtu1341       0.27230         1       240  
     261           rtu1342       2.73170         1       239  
     262           rtu1351       0.03370         1       245  
     263           rtu1352       1.45900         1       246  
     264           rtu1361       1.32540         1       277  
     265           rtu1362       0.17170         1       278  
     266           rtu1371       0.32470         1       230  
     267           rtu1372       3.53480         1       229  
     268           rtu1381       0.09520         1       304  
     269           rtu1382       2.53390         1       303  
     270           rtu1391       0.39450         1       162  
     271           rtu1392       1.60290         1       161  
     272           rtu1401       0.09150         1       166  
     273           rtu1402       1.85510         1       165  
     274           rtu1411       0.74150         1       302  
     275           rtu1412       4.14810         1       301  
     276           rtu1421       0.77850         1       347  
     277           rtu1422       0.89380         1       348  
     278           rtu1431       2.23860         1       345  
     279           rtu1432       0.42220         1       346  
     280           rtu1441       0.40220         1       260  
     281           rtu1442       1.30170         1       259  
     282           rtu1451       0.15570         1       222  
     283           rtu1452       1.72230         1       221  
     284           rtu1461       0.12840         1       203  
     285           rtu1462       2.61580         1       202  
     286           rtu1471       1.43240         1       258  
     287           rtu1472       1.49690         1       257  
     288           rtu1481       1.81050         1       256  
     289           rtu1482       2.12020         1       255  
     290           rtu1491       0.31300         1        77  
     291           rtu1492       1.41630         1        76  
     292           rtu1501       1.03460         1       224  
     293           rtu1502       2.30990         1       223  
     294           rtu1511       0.40210         1       429  
     295           rtu1512       0.14700         1       428  
     296           rtu1521       0.02570         1       126  
     297           rtu1531       0.93700         1       103  
     298           rtu1532       1.73690         1       102  
     299           rtu1541       0.23220         1       114  
     300           rtu1542       0.00330         1       115  
     301           rtu1551       0.64650         1        99  
     302           rtu1552       1.25400         1        98  
     303           rtu1561       0.12420         1       111  
     304           rtu1571       1.01570         1       107  
     305           rtu1572       1.19590         1       108  
     306           rtu1581       2.08240         1       462  
     307           rtu1582       2.35070         1       463  
     308           rtu1591       0.27180         1       386  
     309           rtu1592       0.10680         1       387  
     310           rtu1601       0.69360         1       390  
     311           rtu1602       0.55010         1       391  
     312           rtu1611       2.05800         1       383  
     313           rtu1612       2.60540         1       382  
     314           rtu1621       0.60300         1       127  
     315           rtu1622       0.48040         1       128  
     316           rtu1631       0.26680         1       130  
     317           rtu1632       0.86640         1       129  
     318           rtu1641       1.23000         1       389  
     319           rtu1642       4.25880         1       388  
     320           rtu1651       0.55330         1       133  
     321           rtu1652       1.38030         1       134  
     322           rtu1661       1.67590         1       377  
     323           rtu1662       3.81860         1       376  
     324           rtu1671       0.26220         1       324  
     325           rtu1672       1.36600         1       323  
     326           rtu1681       0.15660         1       112  
     327           rtu1682       0.40300         1       113  
     328           rtu1691       0.18870         1       328  
     329           rtu1692       1.42380         1       327  
     330           rtu1701       0.49340         1       331  
     331           rtu1702       1.30630         1       332  
     332           rtu1711       0.83090         1       320  
     333           rtu1712       0.95610         1       319  
     334           rtu1721       0.74480         1       316  
     335           rtu1722       1.60420         1       315  
     336           rtu1731       0.23310         1       393  
     337           rtu1732       0.71980         1       392  
     338           rtu1741       0.20500         1       404  
     339           rtu1742       0.40810         1       405  
     340           rtu1751       0.85720         1       118  
     341           rtu1752       3.86810         1       119  
     342           rtu1761       0.17370         1       399  
     343           rtu1762       2.10180         1       398  
     344           rtu1771       1.04010         1       124  
     345           rtu1772       6.24210         1       125  
     346           rtu1781       0.09140         1       406  
     347           rtu1782       1.54550         1       407  
     348           rtu1791       0.31340         1       396  
     349           rtu1792       1.46270         1       397  
     350           rtu1801       0.78420         1       314  
     351           rtu1802       2.68510         1       313  
     352           rtu1811       0.10730         1       322  
     353           rtu1812       0.59690         1       321  
     354           rtu1821       0.82330         1        83  
     355           rtu1822       4.20850         1        82  
     356           rtu1831       0.81700         1       371  
     357           rtu1832       5.08910         1       370  
     358           rtu1841       0.48510         1       364  
     359           rtu1842       0.06370         1       365  
     360           rtu1851       0.49950         1       430  
     361           rtu1852       1.40360         1       431  
     362           rtu1861       0.36410         1       368  
     363           rtu1862       3.36180         1       369  
     364           rtu1871       0.11350         1       395  
     365           rtu1872       1.53580         1       394  
     366           rtu1881       0.59430         1       334  
     367           rtu1882       1.23370         1       333  
     368           rtu1891       0.44870         1       336  
     369           rtu1892       1.20790         1       335  
     370           rtu1901       0.51020         1       120  
     371           rtu1902       1.70110         1       121  
     372           rtu1911       0.71310         1       366  
     373           rtu1912       1.08640         1       367  
     374           rtu1921       0.18600         1       318  
     375           rtu1922       1.57590         1       317  
     376           rtu1931       0.99200         1       330  
     377           rtu1932       2.20580         1       329  
     378           rtu1941       0.54390         1       122  
     379           rtu1942       2.43880         1       123  
     380           rtu1951       0.51020         1       381  
     381           rtu1952       1.61820         1       380  
     382           rtu1961       0.63110         1       116  
     383           rtu1962       2.15440         1       117  
     384           rtu1971       2.42250         1       361  
     385           rtu1972       3.11040         1       360  
     386           rtu1981       0.42150         1       326  
     387           rtu1982       2.73640         1       325  
     388           rtu1991       0.15130         1       373  
     389           rtu1992       2.15300         1       372  
     390           rtu2001       0.38840         1        91  
     391           rtu2002       3.20970         1        90  
     392           rtu2011       0.32670         1       308  
     393           rtu2012       1.23170         1       307  
     394           rtu2021       0.22990         1       310  
     395           rtu2022       1.94300         1       309  
     396           rtu2031       0.00040         1       505  
     397           rtu2041       0.33340         1       497  
     398           rtu2042       0.09050         1       496  
     399           rtu2051       0.09850         1       495  
     400           rtu2052       0.05480         1       494  
     401           rtu2061       1.64330         1       427  
     402           rtu2062       2.37480         1       426  
     403           rtu2071       0.98870         1       341  
     404           rtu2072       1.30480         1       342  
     405           rtu2081       0.07620         1       403  
     406           rtu2082       0.02820         1       402  
     407           rtu2091       1.43540         1       340  
     408           rtu2092       3.42890         1       339  
     409           rtu2101       3.21370         1       375  
     410           rtu2102       4.18750         1       374  
     411           rtu2111       0.25780         1       385  
     412           rtu2112       0.99940         1       384  
     413           rtu2121       0.29300         1       132  
     414           rtu2122       2.25650         1       131  
     415           rtu2131       1.29030         1       338  
     416           rtu2132       0.72220         1       337  
     417           rtu2141       0.28730         1       449  
     418           rtu2142       0.91860         1       448  
     419           rtu2151       0.62210         1       416  
     420           rtu2152       1.06570         1       417  
     421           rtu2161       0.11980         1       500  
     422           rtu2171       0.55560         1       420  
     423           rtu2172       1.11880         1       421  
     424           rtu2181       0.37960         1       440  
     425           rtu2182       0.78060         1       441  
     426           rtu2191       0.00480         1       442  
     427           rtu2192       0.00010         1       443  
     428           rtu2201       0.51040         1       501  
     429           rtu2202       0.43040         1       502  
     430           rtu2211       0.42000         1       422  
     431           rtu2212       1.59510         1       423  
     432           rtu2221       0.16680         1       508  
     433           rtu2222       1.80170         1       509  
     434           rtu2231       0.07330         1       456  
     435           rtu2232       1.57400         1       457  
     436           rtu2241       0.50200         1       447  
     437           rtu2242       4.70380         1       446  
     438           rtu2251       0.33740         1       507  
     439           rtu2252       2.90910         1       506  
     440           rtu2261       0.09700         1       424  
     441           rtu2262       2.25510         1       425  
     442           rtu2271       0.24880         1       503  
     443           rtu2272       1.59590         1       504  
     444           rtu2281       0.10690         1       445  
     445           rtu2282       1.66960         1       444  
     446           rtu2291       0.25420         1       410  
     447           rtu2292       1.87510         1       411  
     448           rtu2301       0.46580         1       439  
     449           rtu2302       3.19490         1       438  
     450           rtu2311       0.60660         1       415  
     451           rtu2312       2.32910         1       414  
     452           rtu2321       0.57020         1       499  
     453           rtu2322       2.31210         1       498  
     454           rtu2331       0.17850         1       418  
     455           rtu2332       1.57130         1       419  
     456           rtu2341       0.40730         1       409  
     457           rtu2342       1.61570         1       408  
     458           rtu2351       0.09970         1       401  
     459           rtu2352       1.60690         1       400  
     460           rtu2361       0.20850         1       437  
     461           rtu2362       1.42760         1       436  
     462           rtu2371       0.11130         1       435  
     463           rtu2372       1.56780         1       434  
     464           rtu2381       0.11180         1       135  
     465           rtu2382       1.51330         1       136  
     466           rtu2391       0.44090         1       433  
     467           rtu2392       4.06040         1       432  
     468           rtu2401       0.46070         1       412  
     469           rtu2402       1.18300         1       413  
     470           rtu2411       0.92350         1       561  
     471           rtu2412       1.42920         1       562  
     472           rtu2421       0.06720         1       563  
     473           rtu2431       0.48160         1       519  