ls_unit.ele: written by SWAT+ editor v2.3.3 on 2025-03-05 17:01 for SWAT+ rev.60.5.7
      id  name                   obj_typ  obj_typ_no      bsn_frac      sub_frac      reg_frac  
       1  hru001                     hru           1     3.3574E-3       1.00000       0.00000  
       2  hru002                     hru           2     5.5563E-4       1.00000       0.00000  
       3  hru003                     hru           3     4.7742E-3       1.00000       0.00000  
       4  hru004                     hru           4     2.2254E-3       1.00000       0.00000  
       5  hru005                     hru           5     4.0227E-3       1.00000       0.00000  
       6  hru006                     hru           6     5.7191E-4       1.00000       0.00000  
       7  hru007                     hru           7     8.7150E-4       1.00000       0.00000  
       8  hru008                     hru           8     5.0510E-4       1.00000       0.00000  
       9  hru009                     hru           9     2.2725E-3       1.00000       0.00000  
      10  hru010                     hru          10     1.1394E-3       1.00000       0.00000  
      11  hru011                     hru          11     3.6255E-3       1.00000       0.00000  
      12  hru012                     hru          12     1.6837E-4       1.00000       0.00000  
      13  hru013                     hru          13     5.2510E-3       1.00000       0.00000  
      14  hru014                     hru          14     2.8195E-3       1.00000       0.00000  
      15  hru015                     hru          15     4.1675E-3       1.00000       0.00000  
      16  hru016                     hru          16     4.1416E-4       1.00000       0.00000  
      17  hru017                     hru          17     1.5214E-3       1.00000       0.00000  
      18  hru018                     hru          18     9.1830E-4       1.00000       0.00000  
      19  hru019                     hru          19     1.5536E-3       1.00000       0.00000  
      20  hru020                     hru          20     9.5520E-4       1.00000       0.00000  
      21  hru021                     hru          21     4.3430E-3       1.00000       0.00000  
      22  hru022                     hru          22     2.0942E-3       1.00000       0.00000  
      23  hru023                     hru          23     1.8511E-3       1.00000       0.00000  
      24  hru024                     hru          24     4.9039E-4       1.00000       0.00000  
      25  hru025                     hru          25     3.0833E-3       1.00000       0.00000  
      26  hru026                     hru          26     6.9409E-4       1.00000       0.00000  
      27  hru027                     hru          27     3.1811E-3       1.00000       0.00000  
      28  hru028                     hru          28     4.5698E-4       1.00000       0.00000  
      29  hru029                     hru          29     4.5493E-4       1.00000       0.00000  
      30  hru030                     hru          30     1.0319E-3       1.00000       0.00000  
      31  hru031                     hru          31     1.5296E-3       1.00000       0.00000  
      32  hru032                     hru          32     1.5587E-3       1.00000       0.00000  
      33  hru033                     hru          33     4.7091E-3       1.00000       0.00000  
      34  hru034                     hru          34     9.2360E-4       1.00000       0.00000  
      35  hru035                     hru          35     8.2784E-4       1.00000       0.00000  
      36  hru036                     hru          36     3.0981E-3       1.00000       0.00000  
      37  hru037                     hru          37     2.1375E-3       1.00000       0.00000  
      38  hru038                     hru          38     2.6155E-3       1.00000       0.00000  
      39  hru039                     hru          39     2.3857E-3       1.00000       0.00000  
      40  hru040                     hru          40     1.3215E-3       1.00000       0.00000  
      41  hru041                     hru          41     1.7607E-3       1.00000       0.00000  
      42  hru042                     hru          42     4.6460E-3       1.00000       0.00000  
      43  hru043                     hru          43     2.7250E-3       1.00000       0.00000  
      44  hru044                     hru          44     4.7229E-4       1.00000       0.00000  
      45  hru045                     hru          45     2.0076E-3       1.00000       0.00000  
      46  hru046                     hru          46     3.8015E-4       1.00000       0.00000  
      47  hru047                     hru          47     1.9032E-4       1.00000       0.00000  
      48  hru048                     hru          48     3.8268E-4       1.00000       0.00000  
      49  hru049                     hru          49     5.1849E-4       1.00000       0.00000  
      50  hru050                     hru          50     2.2031E-3       1.00000       0.00000  
      51  hru051                     hru          51     1.2627E-4       1.00000       0.00000  
      52  hru052                     hru          52     1.3616E-4       1.00000       0.00000  
      53  hru053                     hru          53     3.4976E-5       1.00000       0.00000  
      54  hru054                     hru          54     2.2676E-3       1.00000       0.00000  
      55  hru055                     hru          55     2.4760E-4       1.00000       0.00000  
      56  hru056                     hru          56     4.1006E-6       1.00000       0.00000  
      57  hru057                     hru          57     3.2467E-3       1.00000       0.00000  
      58  hru058                     hru          58     3.3468E-4       1.00000       0.00000  
      59  hru059                     hru          59     9.1094E-4       1.00000       0.00000  
      60  hru060                     hru          60     4.2398E-3       1.00000       0.00000  
      61  hru061                     hru          61     2.4157E-4       1.00000       0.00000  
      62  hru062                     hru          62     2.2322E-3       1.00000       0.00000  
      63  hru063                     hru          63     1.7389E-3       1.00000       0.00000  
      64  hru064                     hru          64     1.5836E-4       1.00000       0.00000  
      65  hru065                     hru          65     2.0696E-4       1.00000       0.00000  
      66  hru066                     hru          66     1.2738E-3       1.00000       0.00000  
      67  hru067                     hru          67     1.3224E-3       1.00000       0.00000  
      68  hru068                     hru          68     2.6356E-3       1.00000       0.00000  
      69  hru069                     hru          69     6.3041E-4       1.00000       0.00000  
      70  hru070                     hru          70     2.0267E-3       1.00000       0.00000  
      71  hru071                     hru          71     1.1067E-3       1.00000       0.00000  
      72  hru072                     hru          72     1.1003E-3       1.00000       0.00000  
      73  hru073                     hru          73     3.2769E-4       1.00000       0.00000  
      74  hru074                     hru          74     6.2667E-3       1.00000       0.00000  
      75  hru075                     hru          75     1.5606E-3       1.00000       0.00000  
      76  hru076                     hru          76     1.7081E-3       1.00000       0.00000  
      77  hru077                     hru          77     3.7750E-4       1.00000       0.00000  
      78  hru078                     hru          78     5.5838E-3       1.00000       0.00000  
      79  hru079                     hru          79     1.4192E-3       1.00000       0.00000  
      80  hru080                     hru          80     3.5639E-4       1.00000       0.00000  
      81  hru081                     hru          81     2.7162E-3       1.00000       0.00000  
      82  hru082                     hru          82     5.0757E-3       1.00000       0.00000  
      83  hru083                     hru          83     9.9295E-4       1.00000       0.00000  
      84  hru084                     hru          84     3.1372E-3       1.00000       0.00000  
      85  hru085                     hru          85     3.3504E-4       1.00000       0.00000  
      86  hru086                     hru          86     4.3599E-4       1.00000       0.00000  
      87  hru087                     hru          87     6.1268E-5       1.00000       0.00000  
      88  hru088                     hru          88     1.3536E-3       1.00000       0.00000  
      89  hru089                     hru          89     5.6806E-5       1.00000       0.00000  
      90  hru090                     hru          90     3.8711E-3       1.00000       0.00000  
      91  hru091                     hru          91     4.6843E-4       1.00000       0.00000  
      92  hru092                     hru          92     2.0660E-3       1.00000       0.00000  
      93  hru093                     hru          93     2.8785E-3       1.00000       0.00000  
      94  hru094                     hru          94     5.3308E-4       1.00000       0.00000  
      95  hru095                     hru          95     8.3785E-4       1.00000       0.00000  
      96  hru096                     hru          96     4.5770E-4       1.00000       0.00000  
      97  hru097                     hru          97     1.2808E-4       1.00000       0.00000  
      98  hru098                     hru          98     1.5124E-3       1.00000       0.00000  
      99  hru099                     hru          99     7.7972E-4       1.00000       0.00000  
     100  hru100                     hru         100     6.6816E-5       1.00000       0.00000  
     101  hru101                     hru         101     2.7969E-4       1.00000       0.00000  
     102  hru102                     hru         102     2.0948E-3       1.00000       0.00000  
     103  hru103                     hru         103     1.1301E-3       1.00000       0.00000  
     104  hru104                     hru         104     2.0805E-4       1.00000       0.00000  
     105  hru105                     hru         105     3.1418E-4       1.00000       0.00000  
     106  hru106                     hru         106     5.3380E-4       1.00000       0.00000  
     107  hru107                     hru         107     1.2250E-3       1.00000       0.00000  
     108  hru108                     hru         108     1.4423E-3       1.00000       0.00000  
     109  hru109                     hru         109     6.2293E-4       1.00000       0.00000  
     110  hru110                     hru         110     3.6294E-3       1.00000       0.00000  
     111  hru111                     hru         111     1.4979E-4       1.00000       0.00000  
     112  hru112                     hru         112     1.8887E-4       1.00000       0.00000  
     113  hru113                     hru         113     4.8604E-4       1.00000       0.00000  
     114  hru114                     hru         114     2.8005E-4       1.00000       0.00000  
     115  hru115                     hru         115     3.9800E-6       1.00000       0.00000  
     116  hru116                     hru         116     7.6115E-4       1.00000       0.00000  
     117  hru117                     hru         117     2.5983E-3       1.00000       0.00000  
     118  hru118                     hru         118     1.0338E-3       1.00000       0.00000  
     119  hru119                     hru         119     4.6652E-3       1.00000       0.00000  
     120  hru120                     hru         120     6.1533E-4       1.00000       0.00000  
     121  hru121                     hru         121     2.0516E-3       1.00000       0.00000  
     122  hru122                     hru         122     6.5598E-4       1.00000       0.00000  
     123  hru123                     hru         123     2.9413E-3       1.00000       0.00000  
     124  hru124                     hru         124     1.2544E-3       1.00000       0.00000  
     125  hru125                     hru         125     7.5284E-3       1.00000       0.00000  
     126  hru126                     hru         126     3.0996E-5       1.00000       0.00000  
     127  hru127                     hru         127     7.2726E-4       1.00000       0.00000  
     128  hru128                     hru         128     5.7939E-4       1.00000       0.00000  
     129  hru129                     hru         129     1.0449E-3       1.00000       0.00000  
     130  hru130                     hru         130     3.2178E-4       1.00000       0.00000  
     131  hru131                     hru         131     2.7215E-3       1.00000       0.00000  
     132  hru132                     hru         132     3.5338E-4       1.00000       0.00000  
     133  hru133                     hru         133     6.6731E-4       1.00000       0.00000  
     134  hru134                     hru         134     1.6647E-3       1.00000       0.00000  
     135  hru135                     hru         135     1.3484E-4       1.00000       0.00000  
     136  hru136                     hru         136     1.8251E-3       1.00000       0.00000  
     137  hru137                     hru         137     2.2493E-3       1.00000       0.00000  
     138  hru138                     hru         138     3.4445E-4       1.00000       0.00000  
     139  hru139                     hru         139     3.4288E-3       1.00000       0.00000  
     140  hru140                     hru         140     7.0012E-4       1.00000       0.00000  
     141  hru141                     hru         141     3.5140E-3       1.00000       0.00000  
     142  hru142                     hru         142     1.6234E-4       1.00000       0.00000  
     143  hru143                     hru         143     5.6092E-3       1.00000       0.00000  
     144  hru144                     hru         144     1.0681E-3       1.00000       0.00000  
     145  hru145                     hru         145     1.7928E-3       1.00000       0.00000  
     146  hru146                     hru         146     9.4073E-5       1.00000       0.00000  
     147  hru147                     hru         147     2.2263E-3       1.00000       0.00000  
     148  hru148                     hru         148     3.4047E-4       1.00000       0.00000  
     149  hru149                     hru         149     1.7436E-3       1.00000       0.00000  
     150  hru150                     hru         150     1.1301E-4       1.00000       0.00000  
     151  hru151                     hru         151     1.0505E-4       1.00000       0.00000  
     152  hru152                     hru         152     1.8453E-4       1.00000       0.00000  
     153  hru153                     hru         153     2.9084E-3       1.00000       0.00000  
     154  hru154                     hru         154     3.2853E-4       1.00000       0.00000  
     155  hru155                     hru         155     2.4785E-4       1.00000       0.00000  
     156  hru156                     hru         156     8.8163E-5       1.00000       0.00000  
     157  hru157                     hru         157     2.3656E-3       1.00000       0.00000  
     158  hru158                     hru         158     2.2216E-4       1.00000       0.00000  
     159  hru159                     hru         159     4.4269E-3       1.00000       0.00000  
     160  hru160                     hru         160     7.5343E-4       1.00000       0.00000  
     161  hru161                     hru         161     1.9332E-3       1.00000       0.00000  
     162  hru162                     hru         162     4.7579E-4       1.00000       0.00000  
     163  hru163                     hru         163     4.9835E-4       1.00000       0.00000  
     164  hru164                     hru         164     1.7642E-3       1.00000       0.00000  
     165  hru165                     hru         165     2.2374E-3       1.00000       0.00000  
     166  hru166                     hru         166     1.1035E-4       1.00000       0.00000  
     167  hru167                     hru         167     1.3689E-4       1.00000       0.00000  
     168  hru168                     hru         168     1.3773E-4       1.00000       0.00000  
     169  hru169                     hru         169     2.4191E-3       1.00000       0.00000  
     170  hru170                     hru         170     1.1930E-3       1.00000       0.00000  
     171  hru171                     hru         171     5.6231E-3       1.00000       0.00000  
     172  hru172                     hru         172     6.7286E-4       1.00000       0.00000  
     173  hru173                     hru         173     8.6377E-3       1.00000       0.00000  
     174  hru174                     hru         174     1.9482E-3       1.00000       0.00000  
     175  hru175                     hru         175     1.9392E-3       1.00000       0.00000  
     176  hru176                     hru         176     2.6220E-4       1.00000       0.00000  
     177  hru177                     hru         177     1.7217E-3       1.00000       0.00000  
     178  hru178                     hru         178     2.5279E-4       1.00000       0.00000  
     179  hru179                     hru         179     2.2679E-3       1.00000       0.00000  
     180  hru180                     hru         180     2.3868E-4       1.00000       0.00000  
     181  hru181                     hru         181     8.0505E-4       1.00000       0.00000  
     182  hru182                     hru         182     1.8354E-3       1.00000       0.00000  
     183  hru183                     hru         183     5.3404E-4       1.00000       0.00000  
     184  hru184                     hru         184     1.9526E-4       1.00000       0.00000  
     185  hru185                     hru         185     1.8865E-3       1.00000       0.00000  
     186  hru186                     hru         186     7.2002E-5       1.00000       0.00000  
     187  hru187                     hru         187     1.0233E-3       1.00000       0.00000  
     188  hru188                     hru         188     7.5041E-4       1.00000       0.00000  
     189  hru189                     hru         189     3.6352E-3       1.00000       0.00000  
     190  hru190                     hru         190     6.4959E-4       1.00000       0.00000  
     191  hru191                     hru         191     4.4528E-4       1.00000       0.00000  
     192  hru192                     hru         192     1.6945E-4       1.00000       0.00000  
     193  hru193                     hru         193     1.1940E-5       1.00000       0.00000  
     194  hru194                     hru         194     4.2417E-4       1.00000       0.00000  
     195  hru195                     hru         195     7.6416E-4       1.00000       0.00000  
     196  hru196                     hru         196     4.2199E-3       1.00000       0.00000  
     197  hru197                     hru         197     1.0299E-3       1.00000       0.00000  
     198  hru198                     hru         198     5.4707E-4       1.00000       0.00000  
     199  hru199                     hru         199     3.9116E-3       1.00000       0.00000  
     200  hru200                     hru         200     5.4199E-3       1.00000       0.00000  
     201  hru201                     hru         201     1.0284E-3       1.00000       0.00000  
     202  hru202                     hru         202     3.1548E-3       1.00000       0.00000  
     203  hru203                     hru         203     1.5486E-4       1.00000       0.00000  
     204  hru204                     hru         204     5.0967E-3       1.00000       0.00000  
     205  hru205                     hru         205     5.6034E-4       1.00000       0.00000  
     206  hru206                     hru         206     1.9030E-3       1.00000       0.00000  
     207  hru207                     hru         207     1.3612E-3       1.00000       0.00000  
     208  hru208                     hru         208     6.0303E-6       1.00000       0.00000  
     209  hru209                     hru         209     4.3918E-3       1.00000       0.00000  
     210  hru210                     hru         210     1.2911E-3       1.00000       0.00000  
     211  hru211                     hru         211     3.5089E-3       1.00000       0.00000  
     212  hru212                     hru         212     1.5811E-3       1.00000       0.00000  
     213  hru213                     hru         213     4.9533E-3       1.00000       0.00000  
     214  hru214                     hru         214     1.0599E-3       1.00000       0.00000  
     215  hru215                     hru         215     2.6395E-3       1.00000       0.00000  
     216  hru216                     hru         216     4.8472E-4       1.00000       0.00000  
     217  hru217                     hru         217     1.1936E-3       1.00000       0.00000  
     218  hru218                     hru         218     1.1648E-3       1.00000       0.00000  
     219  hru219                     hru         219     1.5585E-3       1.00000       0.00000  
     220  hru220                     hru         220     1.1127E-3       1.00000       0.00000  
     221  hru221                     hru         221     2.0772E-3       1.00000       0.00000  
     222  hru222                     hru         222     1.8778E-4       1.00000       0.00000  
     223  hru223                     hru         223     2.7859E-3       1.00000       0.00000  
     224  hru224                     hru         224     1.2478E-3       1.00000       0.00000  
     225  hru225                     hru         225     4.6988E-4       1.00000       0.00000  
     226  hru226                     hru         226     9.3494E-4       1.00000       0.00000  
     227  hru227                     hru         227     3.0923E-4       1.00000       0.00000  
     228  hru228                     hru         228     5.8627E-4       1.00000       0.00000  
     229  hru229                     hru         229     4.2632E-3       1.00000       0.00000  
     230  hru230                     hru         230     3.9161E-4       1.00000       0.00000  
     231  hru231                     hru         231     4.3515E-4       1.00000       0.00000  
     232  hru232                     hru         232     3.2793E-4       1.00000       0.00000  
     233  hru233                     hru         233     3.6773E-4       1.00000       0.00000  
     234  hru234                     hru         234     1.4172E-3       1.00000       0.00000  
     235  hru235                     hru         235     6.1702E-4       1.00000       0.00000  
     236  hru236                     hru         236     1.0119E-4       1.00000       0.00000  
     237  hru237                     hru         237     8.6909E-4       1.00000       0.00000  
     238  hru238                     hru         238     5.0184E-4       1.00000       0.00000  
     239  hru239                     hru         239     3.2946E-3       1.00000       0.00000  
     240  hru240                     hru         240     3.2841E-4       1.00000       0.00000  
     241  hru241                     hru         241     6.2414E-4       1.00000       0.00000  
     242  hru242                     hru         242     2.1392E-3       1.00000       0.00000  
     243  hru243                     hru         243     2.3298E-3       1.00000       0.00000  
     244  hru244                     hru         244     2.3699E-4       1.00000       0.00000  
     245  hru245                     hru         245     4.0644E-5       1.00000       0.00000  
     246  hru246                     hru         246     1.7596E-3       1.00000       0.00000  
     247  hru247                     hru         247     4.6483E-3       1.00000       0.00000  
     248  hru248                     hru         248     1.8614E-3       1.00000       0.00000  
     249  hru249                     hru         249     2.3029E-3       1.00000       0.00000  
     250  hru250                     hru         250     1.4063E-4       1.00000       0.00000  
     251  hru251                     hru         251     2.1576E-3       1.00000       0.00000  
     252  hru252                     hru         252     3.4216E-4       1.00000       0.00000  
     253  hru253                     hru         253     2.8286E-3       1.00000       0.00000  
     254  hru254                     hru         254     4.0729E-4       1.00000       0.00000  
     255  hru255                     hru         255     2.5571E-3       1.00000       0.00000  
     256  hru256                     hru         256     2.1836E-3       1.00000       0.00000  
     257  hru257                     hru         257     1.8054E-3       1.00000       0.00000  
     258  hru258                     hru         258     1.7276E-3       1.00000       0.00000  
     259  hru259                     hru         259     1.5699E-3       1.00000       0.00000  
     260  hru260                     hru         260     4.8508E-4       1.00000       0.00000  
     261  hru261                     hru         261     8.1687E-4       1.00000       0.00000  
     262  hru262                     hru         262     1.0182E-3       1.00000       0.00000  
     263  hru263                     hru         263     1.4162E-3       1.00000       0.00000  
     264  hru264                     hru         264     2.9018E-4       1.00000       0.00000  
     265  hru265                     hru         265     2.1076E-3       1.00000       0.00000  
     266  hru266                     hru         266     1.8037E-3       1.00000       0.00000  
     267  hru267                     hru         267     2.1275E-4       1.00000       0.00000  
     268  hru268                     hru         268     7.9178E-4       1.00000       0.00000  
     269  hru269                     hru         269     2.4893E-4       1.00000       0.00000  
     270  hru270                     hru         270     3.0224E-4       1.00000       0.00000  
     271  hru271                     hru         271     1.7928E-3       1.00000       0.00000  
     272  hru272                     hru         272     1.3480E-3       1.00000       0.00000  
     273  hru273                     hru         273     3.3384E-4       1.00000       0.00000  
     274  hru274                     hru         274     2.0262E-5       1.00000       0.00000  
     275  hru275                     hru         275     4.2485E-3       1.00000       0.00000  
     276  hru276                     hru         276     1.5432E-3       1.00000       0.00000  
     277  hru277                     hru         277     1.5985E-3       1.00000       0.00000  
     278  hru278                     hru         278     2.0708E-4       1.00000       0.00000  
     279  hru279                     hru         279     1.4031E-3       1.00000       0.00000  
     280  hru280                     hru         280     1.1543E-2       1.00000       0.00000  
     281  hru281                     hru         281     2.3904E-4       1.00000       0.00000  
     282  hru282                     hru         282     5.5081E-4       1.00000       0.00000  
     283  hru283                     hru         283     1.9427E-3       1.00000       0.00000  
     284  hru284                     hru         284     1.0276E-4       1.00000       0.00000  
     285  hru285                     hru         285     2.5327E-6       1.00000       0.00000  
     286  hru286                     hru         286     4.2212E-6       1.00000       0.00000  
     287  hru287                     hru         287     1.2184E-3       1.00000       0.00000  
     288  hru288                     hru         288     9.8053E-4       1.00000       0.00000  
     289  hru289                     hru         289     4.8580E-4       1.00000       0.00000  
     290  hru290                     hru         290     5.2210E-4       1.00000       0.00000  
     291  hru291                     hru         291     1.0360E-4       1.00000       0.00000  
     292  hru292                     hru         292     3.4288E-4       1.00000       0.00000  
     293  hru293                     hru         293     6.6044E-4       1.00000       0.00000  
     294  hru294                     hru         294     1.2806E-3       1.00000       0.00000  
     295  hru295                     hru         295     1.7665E-3       1.00000       0.00000  
     296  hru296                     hru         296     3.4364E-3       1.00000       0.00000  
     297  hru297                     hru         297     2.0105E-4       1.00000       0.00000  
     298  hru298                     hru         298     1.9832E-3       1.00000       0.00000  
     299  hru299                     hru         299     1.8723E-3       1.00000       0.00000  
     300  hru300                     hru         300     8.1638E-3       1.00000       0.00000  
     301  hru301                     hru         301     5.0029E-3       1.00000       0.00000  
     302  hru302                     hru         302     8.9430E-4       1.00000       0.00000  
     303  hru303                     hru         303     3.0560E-3       1.00000       0.00000  
     304  hru304                     hru         304     1.1482E-4       1.00000       0.00000  
     305  hru305                     hru         305     2.0378E-3       1.00000       0.00000  
     306  hru306                     hru         306     8.5606E-4       1.00000       0.00000  
     307  hru307                     hru         307     1.4855E-3       1.00000       0.00000  