object.cnt: written by SWAT+ editor v2.3.3 on 2025-03-05 17:01 for SWAT+ rev.60.5.7
name                   ls_area      tot_area       obj       hru      lhru       rtu       mfl       aqu       cha       res       rec      exco       dlr       can       pmp       out      lcha     aqu2d       hrd       wro  
Point_source         829.14440     829.14440      1735       665         0       665         0        63         0         1         0         1         0         0         0         0       340         0         0         0  
