pcp.cli: Precipitation file names - file written by SWAT+ editor 2025-02-03 14:45:13.620346
filename
strpcp.pcp
