recall.con: written by SWAT+ editor v2.3.3 on 2025-01-22 11:47 for SWAT+ rev.60.5.7
      id  name                gis_id          area           lat           lon          elev       rec               wst       cst      ovfl      rule   out_tot       obj_typ    obj_id       hyd_typ          frac  
       1  pt044                   44       0.00001      37.22363     -80.43022     612.98364         1     s37206n80447w         0         0         0         1           sdc        21           tot       1.00000  
