rout_unit.con: written by SWAT+ editor v2.3.3 on 2025-03-05 17:01 for SWAT+ rev.60.5.7
      id  name                gis_id          area           lat           lon          elev       rtu               wst       cst      ovfl      rule   out_tot       obj_typ    obj_id       hyd_typ          frac  
       1  rtu0011                 11       0.85560      37.22284     -80.43056     613.24719         1     s37206n80447w         0         0         0         2           sdc         1           tot       1.00000           aqu         3           rhg       1.00000  
       2  rtu0012                 12       0.37720      37.22337     -80.43100     614.23303         2     s37206n80447w         0         0         0         4           sdc         1           sur       0.31000            ru         1           sur       0.69000            ru         1           lat       1.00000           aqu         4           rhg       1.00000  
       3  rtu0021                 21       1.73640      37.22318     -80.42890     616.15964         3     s37206n80447w         0         0         0         2           sdc         2           tot       1.00000           aqu         3           rhg       1.00000  
       4  rtu0022                 22       3.60100      37.22255     -80.42822     623.37834         4     s37206n80447w         0         0         0         4           sdc         2           sur       0.67000            ru         3           sur       0.33000            ru         3           lat       1.00000           aqu         4           rhg       1.00000  
       5  rtu0031                 31       1.09570      37.22204     -80.42682     625.63348         5     s37206n80447w         0         0         0         2           sdc         3           tot       1.00000           aqu         3           rhg       1.00000  
       6  rtu0032                 32       1.97810      37.22203     -80.42623     627.93580         6     s37206n80447w         0         0         0         4           sdc         3           sur       0.64000            ru         5           sur       0.36000            ru         5           lat       1.00000           aqu         4           rhg       1.00000  
       7  rtu0041                 41       0.42990      37.22152     -80.42482     628.29681         7     s37206n80447w         0         0         0         2           sdc         4           tot       1.00000           aqu         3           rhg       1.00000  
       8  rtu0042                 42       1.82670      37.22123     -80.42418     632.76307         8     s37206n80447w         0         0         0         4           sdc         4           sur       0.81000            ru         7           sur       0.19000            ru         7           lat       1.00000           aqu         4           rhg       1.00000  
       9  rtu0051                 51       0.57550      37.22230     -80.42421     629.72528         9     s37206n80447w         0         0         0         2           sdc         5           tot       1.00000           aqu         3           rhg       1.00000  
      10  rtu0052                 52       2.55650      37.22254     -80.42367     632.12623        10     s37206n80447w         0         0         0         4           sdc         5           sur       0.82000            ru         9           sur       0.18000            ru         9           lat       1.00000           aqu         4           rhg       1.00000  
      11  rtu0061                 61       0.13960      37.22118     -80.41520     633.11819        11     s37206n80447w         0         0         0         2           sdc         6           tot       1.00000           aqu         1           rhg       1.00000  
      12  rtu0062                 62       3.00610      37.22089     -80.41454     639.43648        12     s37206n80447w         0         0         0         4           sdc         6           sur       0.96000            ru        11           sur       0.04000            ru        11           lat       1.00000           aqu         2           rhg       1.00000  
      13  rtu0071                 71       2.16860      37.22157     -80.42186     634.25422        13     s37206n80447w         0         0         0         2           sdc         7           tot       1.00000           aqu         3           rhg       1.00000  
      14  rtu0072                 72       1.77230      37.22197     -80.42121     636.14394        14     s37206n80447w         0         0         0         4           sdc         7           sur       0.45000            ru        13           sur       0.55000            ru        13           lat       1.00000           aqu         4           rhg       1.00000  
      15  rtu0081                 81       0.41880      37.22190     -80.41518     631.54967        15     s37206n80447w         0         0         0         2           sdc         8           tot       1.00000           aqu         1           rhg       1.00000  
      16  rtu0082                 82       0.72260      37.22227     -80.41525     636.68101        16     s37206n80447w         0         0         0         4           sdc         8           sur       0.63000            ru        15           sur       0.37000            ru        15           lat       1.00000           aqu         2           rhg       1.00000  
      17  rtu0091                 91       1.29240      37.22245     -80.43227     613.62736        17     s37206n80447w         0         0         0         2           sdc         9           tot       1.00000           aqu         3           rhg       1.00000  
      18  rtu0092                 92       1.26830      37.22305     -80.43393     620.79950        18     s37206n80447w         0         0         0         4           sdc         9           sur       0.50000            ru        17           sur       0.50000            ru        17           lat       1.00000           aqu         4           rhg       1.00000  
      19  rtu0101                101       0.20960      37.22201     -80.44952     627.10115        19     s37206n80447w         0         0         0         2           sdc        10           tot       1.00000           aqu         9           rhg       1.00000  
      20  rtu0102                102       1.42750      37.22129     -80.45040     632.32056        20     s37206n80447w         0         0         0         4           sdc        10           sur       0.87000            ru        19           sur       0.13000            ru        19           lat       1.00000           aqu        10           rhg       1.00000  
      21  rtu0111                111       0.79200      37.22288     -80.43185     613.71427        21     s37206n80447w         0         0         0         2           sdc        11           tot       1.00000           aqu         3           rhg       1.00000  
      22  rtu0112                112       1.28820      37.22372     -80.43263     617.33085        22     s37206n80447w         0         0         0         4           sdc        11           sur       0.60000            ru        21           sur       0.40000            ru        21           lat       1.00000           aqu         4           rhg       1.00000  
      23  rtu0121                121       0.47420      37.22242     -80.41398     634.36946        23     s37206n80447w         0         0         0         2           sdc        12           tot       1.00000           aqu         1           rhg       1.00000  
      24  rtu0122                122       3.33540      37.22207     -80.41313     640.82305        24     s37206n80447w         0         0         0         4           sdc        12           sur       0.88000            ru        23           sur       0.12000            ru        23           lat       1.00000           aqu         2           rhg       1.00000  
      25  rtu0131                131       1.61530      37.22277     -80.45110     629.56924        25     s37206n80447w         0         0         0         2           sdc        13           tot       1.00000           aqu         9           rhg       1.00000  
      26  rtu0132                132       7.16190      37.22255     -80.45179     634.94240        26     s37206n80447w         0         0         0         4           sdc        13           sur       0.79000            ru        25           sur       0.21000            ru        25           lat       1.00000           aqu        10           rhg       1.00000  
      27  rtu0141                141       0.07800      37.22282     -80.44467     624.52308        27     s37206n80447w         0         0         0         2           sdc        14           tot       1.00000           aqu         7           rhg       1.00000  
      28  rtu0142                142       1.48650      37.22290     -80.44555     628.63491        28     s37206n80447w         0         0         0         4           sdc        14           sur       0.95000            ru        27           sur       0.05000            ru        27           lat       1.00000           aqu         8           rhg       1.00000  
      29  rtu0151                151       0.37890      37.22253     -80.42292     632.15228        29     s37206n80447w         0         0         0         2           sdc        15           tot       1.00000           aqu         3           rhg       1.00000  
      30  rtu0152                152       2.63760      37.22299     -80.42181     635.21872        30     s37206n80447w         0         0         0         4           sdc        15           sur       0.87000            ru        29           sur       0.13000            ru        29           lat       1.00000           aqu         4           rhg       1.00000  
      31  rtu0161                161       0.34340      37.22313     -80.42662     622.56756        31     s37206n80447w         0         0         0         2           sdc        16           tot       1.00000           aqu         3           rhg       1.00000  
      32  rtu0162                162       3.45550      37.22344     -80.42593     628.46494        32     s37206n80447w         0         0         0         4           sdc        16           sur       0.91000            ru        31           sur       0.09000            ru        31           lat       1.00000           aqu         4           rhg       1.00000  
      33  rtu0171                171       0.40660      37.22327     -80.43293     615.56886        33     s37206n80447w         0         0         0         2           sdc        17           tot       1.00000           aqu         3           rhg       1.00000  
      34  rtu0172                172       1.53480      37.22379     -80.43416     622.06314        34     s37206n80447w         0         0         0         4           sdc        17           sur       0.79000            ru        33           sur       0.21000            ru        33           lat       1.00000           aqu         4           rhg       1.00000  
      35  rtu0181                181       0.46070      37.22279     -80.41463     634.87584        35     s37206n80447w         0         0         0         2           sdc        18           tot       1.00000           aqu         1           rhg       1.00000  
      36  rtu0182                182       2.78380      37.22350     -80.41446     640.08273        36     s37206n80447w         0         0         0         4           sdc        18           sur       0.86000            ru        35           sur       0.14000            ru        35           lat       1.00000           aqu         2           rhg       1.00000  
      37  rtu0191                191       0.13460      37.22313     -80.44464     625.64116        37     s37206n80447w         0         0         0         2           sdc        19           tot       1.00000           aqu         7           rhg       1.00000  
      38  rtu0192                192       2.91360      37.22376     -80.44479     631.43266        38     s37206n80447w         0         0         0         4           sdc        19           sur       0.96000            ru        37           sur       0.04000            ru        37           lat       1.00000           aqu         8           rhg       1.00000  
      39  rtu0201                201       0.76140      37.22377     -80.42990     613.73733        39     s37206n80447w         0         0         0         2           sdc        20           tot       1.00000           aqu         3           rhg       1.00000  
      40  rtu0202                202       1.26150      37.22406     -80.42937     619.31359        40     s37206n80447w         0         0         0         4           sdc        20           sur       0.62000            ru        39           sur       0.38000            ru        39           lat       1.00000           aqu         4           rhg       1.00000  
      41  rtu0211                211       2.18530      37.21947     -80.43380     611.96348        41     s37206n80447w         0         0         0         2           sdc        21           tot       1.00000           aqu         3           rhg       1.00000  
      42  rtu0212                212       1.09650      37.21989     -80.43478     618.19197        42     s37206n80447w         0         0         0         4           sdc        21           sur       0.33000            ru        41           sur       0.67000            ru        41           lat       1.00000           aqu         4           rhg       1.00000  
      43  rtu0221                221       3.85220      37.22061     -80.43262     612.98253        43     s37206n80447w         0         0         0         2           sdc        22           tot       1.00000           aqu         3           rhg       1.00000  
      44  rtu0222                222       1.45990      37.22055     -80.43305     618.37146        44     s37206n80447w         0         0         0         4           sdc        22           sur       0.27000            ru        43           sur       0.73000            ru        43           lat       1.00000           aqu         4           rhg       1.00000  
      45  rtu0231                231       2.56880      37.22171     -80.43210     613.12340        45     s37206n80447w         0         0         0         2           sdc        23           tot       1.00000           aqu         3           rhg       1.00000  
      46  rtu0232                232       0.68640      37.22246     -80.43401     620.59120        46     s37206n80447w         0         0         0         4           sdc        23           sur       0.21000            ru        45           sur       0.79000            ru        45           lat       1.00000           aqu         4           rhg       1.00000  
      47  rtu0241                241       0.31730      37.22183     -80.42541     627.59565        47     s37206n80447w         0         0         0         2           sdc        24           tot       1.00000           aqu         3           rhg       1.00000  
      48  rtu0242                242       0.15780      37.22188     -80.42543     627.84221        48     s37206n80447w         0         0         0         4           sdc        24           sur       0.33000            ru        47           sur       0.67000            ru        47           lat       1.00000           aqu         4           rhg       1.00000  
      49  rtu0251                251       0.94470      37.22148     -80.41667     630.03980        49     s37206n80447w         0         0         0         2           sdc        25           tot       1.00000           aqu         1           rhg       1.00000  
      50  rtu0252                252       1.88420      37.22153     -80.41620     636.55185        50     s37206n80447w         0         0         0         4           sdc        25           sur       0.67000            ru        49           sur       0.33000            ru        49           lat       1.00000           aqu         2           rhg       1.00000  
      51  rtu0261                261       0.02900      37.22131     -80.43145     612.11034        51     s37206n80447w         0         0         0         2           sdc        26           tot       1.00000           aqu         3           rhg       1.00000  
      52  rtu0271                271       0.31520      37.22177     -80.43015     617.63959        52     s37206n80447w         0         0         0         2           sdc        27           tot       1.00000           aqu         3           rhg       1.00000  
      53  rtu0272                272       1.66460      37.22175     -80.42926     621.13403        53     s37206n80447w         0         0         0         4           sdc        27           sur       0.84000            ru        52           sur       0.16000            ru        52           lat       1.00000           aqu         4           rhg       1.00000  
      54  rtu0281                281       0.62220      37.21990     -80.44732     619.46496        54     s37206n80447w         0         0         0         2           sdc        28           tot       1.00000           aqu         9           rhg       1.00000  
      55  rtu0282                282       0.84850      37.22037     -80.44695     623.73494        55     s37206n80447w         0         0         0         4           sdc        28           sur       0.58000            ru        54           sur       0.42000            ru        54           lat       1.00000           aqu        10           rhg       1.00000  
      56  rtu0291                291       0.62470      37.21983     -80.44233     614.02849        56     s37206n80447w         0         0         0         2           sdc        29           tot       1.00000           aqu         7           rhg       1.00000  
      57  rtu0292                292       3.67050      37.22000     -80.44227     619.94685        57     s37206n80447w         0         0         0         4           sdc        29           sur       0.85000            ru        56           sur       0.15000            ru        56           lat       1.00000           aqu         8           rhg       1.00000  
      58  rtu0301                301       0.14050      37.22040     -80.44777     620.14021        58     s37206n80447w         0         0         0         2           sdc        30           tot       1.00000           aqu         9           rhg       1.00000  
      59  rtu0302                302       0.36920      37.22062     -80.44774     622.31717        59     s37206n80447w         0         0         0         4           sdc        30           sur       0.72000            ru        58           sur       0.28000            ru        58           lat       1.00000           aqu        10           rhg       1.00000  
      60  rtu0311                311       0.07310      37.22088     -80.44244     616.17100        60     s37206n80447w         0         0         0         2           sdc        31           tot       1.00000           aqu         7           rhg       1.00000  
      61  rtu0312                312       0.20550      37.22094     -80.44299     619.86861        61     s37206n80447w         0         0         0         4           sdc        31           sur       0.74000            ru        60           sur       0.26000            ru        60           lat       1.00000           aqu         8           rhg       1.00000  
      62  rtu0321                321       0.00990      37.22070     -80.44813     622.00000        62     s37206n80447w         0         0         0         2           sdc        32           tot       1.00000           aqu         9           rhg       1.00000  
      63  rtu0331                331       1.05620      37.22029     -80.43417     613.90418        63     s37206n80447w         0         0         0         2           sdc        33           tot       1.00000           aqu         3           rhg       1.00000  
      64  rtu0332                332       0.17160      37.22060     -80.43494     616.72261        64     s37206n80447w         0         0         0         4           sdc        33           sur       0.14000            ru        63           sur       0.86000            ru        63           lat       1.00000           aqu         4           rhg       1.00000  
      65  rtu0341                341       0.27240      37.22098     -80.44165     617.48789        65     s37206n80447w         0         0         0         2           sdc        34           tot       1.00000           aqu         7           rhg       1.00000  
      66  rtu0342                342       2.41150      37.21981     -80.44057     623.17350        66     s37206n80447w         0         0         0         4           sdc        34           sur       0.90000            ru        65           sur       0.10000            ru        65           lat       1.00000           aqu         8           rhg       1.00000  
      67  rtu0351                351       0.15300      37.22138     -80.44133     618.53268        67     s37206n80447w         0         0         0         2           sdc        35           tot       1.00000           aqu         7           rhg       1.00000  
      68  rtu0352                352       0.08710      37.22159     -80.44112     621.70608        68     s37206n80447w         0         0         0         4           sdc        35           sur       0.36000            ru        67           sur       0.64000            ru        67           lat       1.00000           aqu         8           rhg       1.00000  
      69  rtu0361                361       0.16190      37.22126     -80.44817     623.27301        69     s37206n80447w         0         0         0         2           sdc        36           tot       1.00000           aqu         9           rhg       1.00000  
      70  rtu0362                362       0.44280      37.22141     -80.44785     624.78342        70     s37206n80447w         0         0         0         4           sdc        36           sur       0.73000            ru        69           sur       0.27000            ru        69           lat       1.00000           aqu        10           rhg       1.00000  
      71  rtu0371                371       0.87880      37.21813     -80.40962     646.17638        71     s37206n80447w         0         0         0         2           sdc        37           tot       1.00000           aqu        13           rhg       1.00000  
      72  rtu0372                372       4.10700      37.21860     -80.40889     652.14651        72     s37206n80447w         0         0         0         4           sdc        37           sur       0.82000            ru        71           sur       0.18000            ru        71           lat       1.00000           aqu        14           rhg       1.00000  
      73  rtu0381                381       0.66750      37.22133     -80.44862     624.23311        73     s37206n80447w         0         0         0         2           sdc        38           tot       1.00000           aqu         9           rhg       1.00000  
      74  rtu0382                382       1.52180      37.22103     -80.44937     628.03693        74     s37206n80447w         0         0         0         4           sdc        38           sur       0.70000            ru        73           sur       0.30000            ru        73           lat       1.00000           aqu        10           rhg       1.00000  
      75  rtu0391                391       0.88560      37.22185     -80.44337     620.16972        75     s37206n80447w         0         0         0         2           sdc        39           tot       1.00000           aqu         7           rhg       1.00000  
      76  rtu0392                392       4.65080      37.22213     -80.44403     627.22833        76     s37206n80447w         0         0         0         4           sdc        39           sur       0.84000            ru        75           sur       0.16000            ru        75           lat       1.00000           aqu         8           rhg       1.00000  
      77  rtu0401                401       0.58050      37.22257     -80.44162     622.76072        77     s37206n80447w         0         0         0         2           sdc        40           tot       1.00000           aqu         7           rhg       1.00000  
      78  rtu0402                402       2.84300      37.22336     -80.44183     628.33609        78     s37206n80447w         0         0         0         4           sdc        40           sur       0.83000            ru        77           sur       0.17000            ru        77           lat       1.00000           aqu         8           rhg       1.00000  
      79  rtu0411                411       0.55790      37.22214     -80.44804     625.88027        79     s37206n80447w         0         0         0         2           sdc        41           tot       1.00000           aqu         9           rhg       1.00000  
      80  rtu0412                412       4.66240      37.22318     -80.44831     632.20747        80     s37206n80447w         0         0         0         4           sdc        41           sur       0.89000            ru        79           sur       0.11000            ru        79           lat       1.00000           aqu        10           rhg       1.00000  
      81  rtu0421                421       1.84520      37.22186     -80.41786     630.25054        81     s37206n80447w         0         0         0         2           sdc        42           tot       1.00000           aqu         1           rhg       1.00000  
      82  rtu0422                422       3.95850      37.22278     -80.41781     638.62953        82     s37206n80447w         0         0         0         4           sdc        42           sur       0.68000            ru        81           sur       0.32000            ru        81           lat       1.00000           aqu         2           rhg       1.00000  
      83  rtu0431                431       0.21740      37.22217     -80.44746     626.01564        83     s37206n80447w         0         0         0         2           sdc        43           tot       1.00000           aqu         9           rhg       1.00000  
      84  rtu0432                432       1.60790      37.22269     -80.44679     629.42092        84     s37206n80447w         0         0         0         4           sdc        43           sur       0.88000            ru        83           sur       0.12000            ru        83           lat       1.00000           aqu        10           rhg       1.00000  
      85  rtu0441                441       0.76580      37.22170     -80.43512     619.15161        85     s37206n80447w         0         0         0         2           sdc        44           tot       1.00000           aqu         3           rhg       1.00000  
      86  rtu0442                442       3.90450      37.22253     -80.43597     626.87822        86     s37206n80447w         0         0         0         4           sdc        44           sur       0.84000            ru        85           sur       0.16000            ru        85           lat       1.00000           aqu         4           rhg       1.00000  
      87  rtu0451                451       0.28230      37.22207     -80.44125     620.54942        87     s37206n80447w         0         0         0         2           sdc        45           tot       1.00000           aqu         7           rhg       1.00000  
      88  rtu0452                452       1.84590      37.22248     -80.44053     627.15916        88     s37206n80447w         0         0         0         4           sdc        45           sur       0.87000            ru        87           sur       0.13000            ru        87           lat       1.00000           aqu         8           rhg       1.00000  
      89  rtu0461                461       0.00340      37.22158     -80.43068     614.50000        89     s37206n80447w         0         0         0         2           sdc        46           tot       1.00000           aqu         3           rhg       1.00000  
      90  rtu0471                471       0.35170      37.22028     -80.44836     622.24168        90     s37206n80447w         0         0         0         2           sdc        47           tot       1.00000           aqu         9           rhg       1.00000  
      91  rtu0472                472       0.63360      37.22037     -80.44963     628.78378        91     s37206n80447w         0         0         0         4           sdc        47           sur       0.64000            ru        90           sur       0.36000            ru        90           lat       1.00000           aqu        10           rhg       1.00000  
      92  rtu0481                481       0.10470      37.22148     -80.43052     614.44986        92     s37206n80447w         0         0         0         2           sdc        48           tot       1.00000           aqu         3           rhg       1.00000  
      93  rtu0482                482       0.11290      37.22132     -80.43003     619.55890        93     s37206n80447w         0         0         0         4           sdc        48           sur       0.52000            ru        92           sur       0.48000            ru        92           lat       1.00000           aqu         4           rhg       1.00000  