rout_unit.def: written by SWAT+ editor v2.3.3 on 2025-03-05 17:01 for SWAT+ rev.60.5.7
      id              name  elem_tot  elements  
       1           rtu0011         1        30  
       2           rtu0012         1        29  
       3           rtu0021         1        22  
       4           rtu0022         1        21  
       5           rtu0031         1        40  
       6           rtu0032         1        39  
       7           rtu0041         1        49  
       8           rtu0042         1        50  
       9           rtu0051         1        26  
      10           rtu0052         1        25  
      11           rtu0061         1        12  
      12           rtu0062         1        11  
      13           rtu0071         1        38  
      14           rtu0072         1        37  
      15           rtu0081         1         8  
      16           rtu0082         1         7  
      17           rtu0091         1        32  
      18           rtu0092         1        31  
      19           rtu0101         1       178  
      20           rtu0102         1       177  
      21           rtu0111         1        20  
      22           rtu0112         1        19  
      23           rtu0121         1         6  
      24           rtu0122         1         5  
      25           rtu0131         1       174  
      26           rtu0132         1       173  
      27           rtu0141         1       146  
      28           rtu0142         1       145  
      29           rtu0151         1        28  
      30           rtu0152         1        27  
      31           rtu0161         1        16  
      32           rtu0162         1        15  
      33           rtu0171         1        24  
      34           rtu0172         1        23  
      35           rtu0181         1         2  
      36           rtu0182         1         1  
      37           rtu0191         1       142  
      38           rtu0192         1       141  
      39           rtu0201         1        18  
      40           rtu0202         1        17  
      41           rtu0211         1        68  
      42           rtu0212         1        67  
      43           rtu0221         1        42  
      44           rtu0222         1        41  
      45           rtu0231         1        36  
      46           rtu0232         1        35  
      47           rtu0241         1        48  
      48           rtu0242         1        47  
      49           rtu0251         1        10  
      50           rtu0252         1         9  
      51           rtu0261         1        53  
      52           rtu0271         1        46  
      53           rtu0272         1        45  
      54           rtu0281         1       188  
      55           rtu0282         1       187  
      56           rtu0291         1       160  
      57           rtu0292         1       159  
      58           rtu0301         1       192  
      59           rtu0302         1       191  
      60           rtu0311         1       156  
      61           rtu0312         1       155  
      62           rtu0321         1       193  
      63           rtu0331         1        66  
      64           rtu0332         1        65  
      65           rtu0341         1       154  
      66           rtu0342         1       153  
      67           rtu0351         1       152  
      68           rtu0352         1       151  
      69           rtu0361         1       184  
      70           rtu0362         1       183  
      71           rtu0371         1       214  
      72           rtu0372         1       213  
      73           rtu0381         1       181  
      74           rtu0382         1       182  
      75           rtu0391         1       144  
      76           rtu0392         1       143  
      77           rtu0401         1       140  
      78           rtu0402         1       139  
      79           rtu0411         1       172  
      80           rtu0412         1       171  
      81           rtu0421         1         4  
      82           rtu0422         1         3  
      83           rtu0431         1       176  
      84           rtu0432         1       175  
      85           rtu0441         1        34  
      86           rtu0442         1        33  
      87           rtu0451         1       148  
      88           rtu0452         1       147  
      89           rtu0461         1        56  
      90           rtu0471         1       194  
      91           rtu0472         1       195  
      92           rtu0481         1        51  
      93           rtu0482         1        52  
      94           rtu0491         1       198  
      95           rtu0492         1       199  
      96           rtu0501         1        71  
      97           rtu0502         1        72  
      98           rtu0511         1       158  
      99           rtu0512         1       157  
     100           rtu0521         1       216  
     101           rtu0522         1       215  
     102           rtu0531         1        59  
     103           rtu0532         1        60  
     104           rtu0541         1       190  
     105           rtu0542         1       189  
     106           rtu0551         1       186  
     107           rtu0552         1       185  
     108           rtu0561         1        44  
     109           rtu0562         1        43  
     110           rtu0571         1       150  
     111           rtu0572         1       149  
     112           rtu0581         1       138  
     113           rtu0582         1       137  
     114           rtu0591         1       180  
     115           rtu0592         1       179  
     116           rtu0601         1        58  
     117           rtu0602         1        57  
     118           rtu0611         1        55  
     119           rtu0612         1        54  
     120           rtu0621         1        61  
     121           rtu0622         1        62  
     122           rtu0631         1       104  
     123           rtu0641         1        96  
     124           rtu0642         1        97  
     125           rtu0651         1        94  
     126           rtu0652         1        95  
     127           rtu0661         1        88  
     128           rtu0662         1        89  
     129           rtu0671         1        86  
     130           rtu0672         1        87  
     131           rtu0681         1        81  
     132           rtu0682         1        80  
     133           rtu0691         1        73  
     134           rtu0701         1        70  
     135           rtu0702         1        69  
     136           rtu0711         1       350  
     137           rtu0712         1       351  
     138           rtu0721         1       352  
     139           rtu0722         1       353  
     140           rtu0731         1       355  
     141           rtu0732         1       354  
     142           rtu0741         1       378  
     143           rtu0742         1       379  
     144           rtu0751         1       294  
     145           rtu0752         1       293  
     146           rtu0761         1       292  
     147           rtu0762         1       291  
     148           rtu0771         1       290  
     149           rtu0772         1       289  
     150           rtu0781         1       276  
     151           rtu0782         1       275  
     152           rtu0791         1       272  
     153           rtu0792         1       271  
     154           rtu0801         1       264  
     155           rtu0802         1       263  
     156           rtu0811         1       282  
     157           rtu0812         1       281  
     158           rtu0821         1       286  
     159           rtu0822         1       285  
     160           rtu0831         1       262  
     161           rtu0832         1       261  
     162           rtu0841         1       208  
     163           rtu0851         1       207  
     164           rtu0852         1       206  
     165           rtu0861         1        14  
     166           rtu0862         1        13  
     167           rtu0871         1       220  
     168           rtu0872         1       219  
     169           rtu0881         1       226  
     170           rtu0882         1       225  
     171           rtu0891         1       228  
     172           rtu0892         1       227  
     173           rtu0901         1       233  
     174           rtu0902         1       234  
     175           rtu0911         1       232  
     176           rtu0912         1       231  
     177           rtu0921         1       170  
     178           rtu0922         1       169  
     179           rtu0931         1       101  
     180           rtu0932         1       100  
     181           rtu0941         1       167  
     182           rtu0942         1       168  
     183           rtu0951         1       201  
     184           rtu0952         1       200  
     185           rtu0961         1        92  
     186           rtu0962         1        93  
     187           rtu0971         1       106  
     188           rtu0972         1       105  
     189           rtu0981         1       197  
     190           rtu0982         1       196  
     191           rtu0991         1       163  
     192           rtu0992         1       164  
     193           rtu1001         1        75  
     194           rtu1002         1        74  
     195           rtu1011         1       218  
     196           rtu1012         1       217  
     197           rtu1021         1       273  
     198           rtu1022         1       274  
     199           rtu1031         1       270  
     200           rtu1032         1       269  
     201           rtu1041         1       268  
     202           rtu1042         1       267  
     203           rtu1051         1       266  
     204           rtu1052         1       265  
     205           rtu1061         1       287  
     206           rtu1062         1       288  
     207           rtu1071         1       357  
     208           rtu1072         1       356  
     209           rtu1081         1       109  
     210           rtu1082         1       110  
     211           rtu1091         1       359  
     212           rtu1092         1       358  
     213           rtu1101         1       299  
     214           rtu1102         1       300  
     215           rtu1111         1       362  
     216           rtu1112         1       363  
     217           rtu1121         1       295  
     218           rtu1122         1       296  
     219           rtu1131         1       212  
     220           rtu1132         1       211  
     221           rtu1141         1       205  
     222           rtu1142         1       204  
     223           rtu1151         1       210  
     224           rtu1152         1       209  
     225           rtu1161         1        79  
     226           rtu1162         1        78  
     227           rtu1171         1       254  
     228           rtu1172         1       253  
     229           rtu1181         1       248  
     230           rtu1182         1       247  
     231           rtu1191         1       250  
     232           rtu1192         1       249  
     233           rtu1201         1       252  
     234           rtu1202         1       251  
     235           rtu1211         1        64  
     236           rtu1212         1        63  
     237           rtu1221         1       236  
     238           rtu1222         1       235  
     239           rtu1231         1       238  
     240           rtu1232         1       237  
     241           rtu1241         1       349  
     242           rtu1251         1       297  
     243           rtu1252         1       298  
     244           rtu1261         1        85  
     245           rtu1262         1        84  
     246           rtu1271         1       312  
     247           rtu1272         1       311  
     248           rtu1281         1       279  
     249           rtu1282         1       280  
     250           rtu1291         1       344  
     251           rtu1292         1       343  
     252           rtu1301         1       284  
     253           rtu1302         1       283  
     254           rtu1311         1       306  
     255           rtu1312         1       305  
     256           rtu1321         1       241  
     257           rtu1322         1       242  
     258           rtu1331         1       244  
     259           rtu1332         1       243  
     260           rtu1341         1       240  
     261           rtu1342         1       239  
     262           rtu1351         1       245  
     263           rtu1352         1       246  
     264           rtu1361         1       277  
     265           rtu1362         1       278  
     266           rtu1371         1       230  
     267           rtu1372         1       229  
     268           rtu1381         1       304  
     269           rtu1382         1       303  
     270           rtu1391         1       162  
     271           rtu1392         1       161  
     272           rtu1401         1       166  
     273           rtu1402         1       165  
     274           rtu1411         1       302  
     275           rtu1412         1       301  
     276           rtu1421         1       347  
     277           rtu1422         1       348  
     278           rtu1431         1       345  
     279           rtu1432         1       346  
     280           rtu1441         1       260  
     281           rtu1442         1       259  
     282           rtu1451         1       222  
     283           rtu1452         1       221  
     284           rtu1461         1       203  
     285           rtu1462         1       202  
     286           rtu1471         1       258  
     287           rtu1472         1       257  
     288           rtu1481         1       256  
     289           rtu1482         1       255  
     290           rtu1491         1        77  
     291           rtu1492         1        76  
     292           rtu1501         1       224  
     293           rtu1502         1       223  
     294           rtu1511         1       429  
     295           rtu1512         1       428  
     296           rtu1521         1       126  
     297           rtu1531         1       103  
     298           rtu1532         1       102  
     299           rtu1541         1       114  
     300           rtu1542         1       115  
     301           rtu1551         1        99  
     302           rtu1552         1        98  
     303           rtu1561         1       111  
     304           rtu1571         1       107  
     305           rtu1572         1       108  
     306           rtu1581         1       462  
     307           rtu1582         1       463  
     308           rtu1591         1       386  
     309           rtu1592         1       387  
     310           rtu1601         1       390  
     311           rtu1602         1       391  
     312           rtu1611         1       383  
     313           rtu1612         1       382  
     314           rtu1621         1       127  
     315           rtu1622         1       128  
     316           rtu1631         1       130  
     317           rtu1632         1       129  
     318           rtu1641         1       389  
     319           rtu1642         1       388  
     320           rtu1651         1       133  
     321           rtu1652         1       134  
     322           rtu1661         1       377  
     323           rtu1662         1       376  
     324           rtu1671         1       324  
     325           rtu1672         1       323  
     326           rtu1681         1       112  
     327           rtu1682         1       113  
     328           rtu1691         1       328  
     329           rtu1692         1       327  
     330           rtu1701         1       331  
     331           rtu1702         1       332  
     332           rtu1711         1       320  
     333           rtu1712         1       319  
     334           rtu1721         1       316  
     335           rtu1722         1       315  
     336           rtu1731         1       393  
     337           rtu1732         1       392  
     338           rtu1741         1       404  
     339           rtu1742         1       405  
     340           rtu1751         1       118  
     341           rtu1752         1       119  
     342           rtu1761         1       399  
     343           rtu1762         1       398  
     344           rtu1771         1       124  
     345           rtu1772         1       125  
     346           rtu1781         1       406  
     347           rtu1782         1       407  
     348           rtu1791         1       396  
     349           rtu1792         1       397  
     350           rtu1801         1       314  
     351           rtu1802         1       313  
     352           rtu1811         1       322  
     353           rtu1812         1       321  
     354           rtu1821         1        83  
     355           rtu1822         1        82  
     356           rtu1831         1       371  
     357           rtu1832         1       370  
     358           rtu1841         1       364  
     359           rtu1842         1       365  
     360           rtu1851         1       430  
     361           rtu1852         1       431  
     362           rtu1861         1       368  
     363           rtu1862         1       369  
     364           rtu1871         1       395  
     365           rtu1872         1       394  
     366           rtu1881         1       334  
     367           rtu1882         1       333  
     368           rtu1891         1       336  
     369           rtu1892         1       335  
     370           rtu1901         1       120  
     371           rtu1902         1       121  
     372           rtu1911         1       366  
     373           rtu1912         1       367  
     374           rtu1921         1       318  
     375           rtu1922         1       317  
     376           rtu1931         1       330  
     377           rtu1932         1       329  
     378           rtu1941         1       122  
     379           rtu1942         1       123  
     380           rtu1951         1       381  
     381           rtu1952         1       380  
     382           rtu1961         1       116  
     383           rtu1962         1       117  
     384           rtu1971         1       361  
     385           rtu1972         1       360  
     386           rtu1981         1       326  
     387           rtu1982         1       325  
     388           rtu1991         1       373  
     389           rtu1992         1       372  
     390           rtu2001         1        91  
     391           rtu2002         1        90  
     392           rtu2011         1       308  
     393           rtu2012         1       307  
     394           rtu2021         1       310  
     395           rtu2022         1       309  
     396           rtu2031         1       505  
     397           rtu2041         1       497  
     398           rtu2042         1       496  
     399           rtu2051         1       495  
     400           rtu2052         1       494  
     401           rtu2061         1       427  
     402           rtu2062         1       426  
     403           rtu2071         1       341  
     404           rtu2072         1       342  
     405           rtu2081         1       403  
     406           rtu2082         1       402  
     407           rtu2091         1       340  
     408           rtu2092         1       339  
     409           rtu2101         1       375  
     410           rtu2102         1       374  
     411           rtu2111         1       385  
     412           rtu2112         1       384  
     413           rtu2121         1       132  
     414           rtu2122         1       131  
     415           rtu2131         1       338  
     416           rtu2132         1       337  
     417           rtu2141         1       449  
     418           rtu2142         1       448  
     419           rtu2151         1       416  
     420           rtu2152         1       417  
     421           rtu2161         1       500  
     422           rtu2171         1       420  
     423           rtu2172         1       421  
     424           rtu2181         1       440  
     425           rtu2182         1       441  
     426           rtu2191         1       442  
     427           rtu2192         1       443  
     428           rtu2201         1       501  
     429           rtu2202         1       502  
     430           rtu2211         1       422  
     431           rtu2212         1       423  
     432           rtu2221         1       508  
     433           rtu2222         1       509  
     434           rtu2231         1       456  
     435           rtu2232         1       457  
     436           rtu2241         1       447  
     437           rtu2242         1       446  
     438           rtu2251         1       507  
     439           rtu2252         1       506  
     440           rtu2261         1       424  
     441           rtu2262         1       425  
     442           rtu2271         1       503  
     443           rtu2272         1       504  
     444           rtu2281         1       445  
     445           rtu2282         1       444  
     446           rtu2291         1       410  
     447           rtu2292         1       411  
     448           rtu2301         1       439  
     449           rtu2302         1       438  
     450           rtu2311         1       415  
     451           rtu2312         1       414  
     452           rtu2321         1       499  
     453           rtu2322         1       498  
     454           rtu2331         1       418  
     455           rtu2332         1       419  
     456           rtu2341         1       409  
     457           rtu2342         1       408  
     458           rtu2351         1       401  
     459           rtu2352         1       400  
     460           rtu2361         1       437  
     461           rtu2362         1       436  
     462           rtu2371         1       435  
     463           rtu2372         1       434  
     464           rtu2381         1       135  
     465           rtu2382         1       136  
     466           rtu2391         1       433  
     467           rtu2392         1       432  
     468           rtu2401         1       412  
     469           rtu2402         1       413  
     470           rtu2411         1       561  
     471           rtu2412         1       562  
     472           rtu2421         1       563  
     473           rtu2431         1       519  
     474           rtu2432         1       518  
     475           rtu2441         1       513  
     476           rtu2442         1       512  
     477           rtu2451         1       511  
     478           rtu2452         1       510  
     479           rtu2461         1       473  
     480           rtu2462         1       472  
     481           rtu2471         1       469  
     482           rtu2472         1       468  
     483           rtu2481         1       471  
     484           rtu2482         1       470  
     485           rtu2491         1       491  
     486           rtu2492         1       490  
     487           rtu2501         1       459  
     488           rtu2502         1       458  
     489           rtu2511         1       453  
     490           rtu2512         1       452  
     491           rtu2521         1       455  
     492           rtu2522         1       454  
     493           rtu2531         1       485  
     494           rtu2532         1       484  
     495           rtu2541         1       451  
     496           rtu2542         1       450  
     497           rtu2551         1       487  
     498           rtu2552         1       486  
     499           rtu2561         1       515  
     500           rtu2562         1       514  
     501           rtu2571         1       467  
     502           rtu2572         1       466  
     503           rtu2581         1       489  
     504           rtu2582         1       488  
     505           rtu2591         1       517  
     506           rtu2592         1       516  
     507           rtu2601         1       532  
     508           rtu2611         1       478  
     509           rtu2612         1       479  
     510           rtu2621         1       566  
     511           rtu2622         1       567  
     512           rtu2631         1       482  
     513           rtu2632         1       483  
     514           rtu2641         1       481  
     515           rtu2642         1       480  
     516           rtu2651         1       522  
     517           rtu2652         1       523  
     518           rtu2661         1       560  
     519           rtu2662         1       559  
     520           rtu2671         1       531  
     521           rtu2672         1       530  
     522           rtu2681         1       477  
     523           rtu2682         1       476  
     524           rtu2691         1       521  
     525           rtu2692         1       520  
     526           rtu2701         1       465  
     527           rtu2702         1       464  
     528           rtu2711         1       461  
     529           rtu2712         1       460  
     530           rtu2721         1       525  
     531           rtu2722         1       524  
     532           rtu2731         1       475  
     533           rtu2732         1       474  
     534           rtu2741         1       527  
     535           rtu2742         1       526  
     536           rtu2751         1       663  
     537           rtu2752         1       662  
     538           rtu2761         1       664  
     539           rtu2762         1       665  
     540           rtu2771         1       660  
     541           rtu2772         1       661  
     542           rtu2781         1       578  
     543           rtu2782         1       579  
     544           rtu2791         1       575  
     545           rtu2792         1       574  
     546           rtu2801         1       573  
     547           rtu2811         1       572  
     548           rtu2821         1       552  
     549           rtu2822         1       551  
     550           rtu2831         1       542  
     551           rtu2832         1       541  
     552           rtu2841         1       549  
     553           rtu2842         1       550  
     554           rtu2851         1       544  
     555           rtu2852         1       543  
     556           rtu2861         1       553  
     557           rtu2862         1       554  
     558           rtu2871         1       548  
     559           rtu2872         1       547  
     560           rtu2881         1       626  
     561           rtu2882         1       627  
     562           rtu2891         1       493  
     563           rtu2892         1       492  
     564           rtu2901         1       614  
     565           rtu2902         1       613  
     566           rtu2911         1       610  
     567           rtu2912         1       609  
     568           rtu2921         1       608  
     569           rtu2922         1       607  
     570           rtu2931         1       615  
     571           rtu2941         1       606  
     572           rtu2942         1       605  
     573           rtu2951         1       612  
     574           rtu2952         1       611  
     575           rtu2961         1       585  
     576           rtu2962         1       584  
     577           rtu2971         1       597  
     578           rtu2972         1       598  
     579           rtu2981         1       595  
     580           rtu2982         1       596  
     581           rtu2991         1       633  
     582           rtu2992         1       632  
     583           rtu3001         1       594  
     584           rtu3011         1       642  
     585           rtu3012         1       643  
     586           rtu3021         1       645  
     587           rtu3022         1       644  
     588           rtu3031         1       631  
     589           rtu3032         1       630  
     590           rtu3041         1       589  
     591           rtu3042         1       588  
     592           rtu3051         1       565  
     593           rtu3052         1       564  
     594           rtu3061         1       650  
     595           rtu3062         1       651  
     596           rtu3071         1       636  
     597           rtu3072         1       637  
     598           rtu3081         1       529  
     599           rtu3082         1       528  
     600           rtu3091         1       558  
     601           rtu3092         1       557  
     602           rtu3101         1       534  
     603           rtu3102         1       533  
     604           rtu3111         1       581  
     605           rtu3112         1       580  
     606           rtu3121         1       583  
     607           rtu3122         1       582  
     608           rtu3131         1       536  
     609           rtu3132         1       535  