soils.sol: written by SWAT+ editor v2.3.3 on 2025-03-05 17:01 for SWAT+ rev.60.5.7
name                            nly           hyd_grp        dp_tot    anion_excl      perc_crk  texture                              dp            bd           awc        soil_k        carbon          clay          silt          sand          rock           alb        usle_k            ec         caco3            ph  
Frederick                         3                 B    2000.00000       0.50000       0.50000  SIL-C-C                    
                                                                                                                               250.00000       1.38000       0.20000     100.80000       1.74014      20.00000      53.50000      26.50000       7.00000       0.36000       0.43000       0.00000       0.00000       5.30000  
                                                                                                                               560.00000       1.35000       0.15000      32.40000       0.29002      55.00000      27.90000      17.10000      10.00000       0.36000       0.24000       0.00000       0.00000       5.30000  
                                                                                                                              2000.00000       1.35000       0.14000      32.40000       0.14501      60.00000      27.90000      12.10000       3.00000       0.36000       0.24000       0.00000       0.00000       5.30000  
Duffield                          3                 B    2000.00000       0.50000       0.50000  SIL-SICL-C                 
                                                                                                                               180.00000       1.25000       0.19000      32.40000       1.74014      22.50000      55.10000      22.40000       3.00000       0.25000       0.32000       0.00000       0.00000       6.20000  
                                                                                                                               940.00000       1.45000       0.17000      32.40000       0.14501      31.00000      50.90000      18.10000      13.00000       0.25000       0.28000       0.00000       0.00000       6.20000  
                                                                                                                              2000.00000       1.45000       0.17000      32.40000       0.14501      45.00000      28.90000      26.10000      10.00000       0.25000       0.32000       0.00000       0.00000       5.80000  
Groseclose                        5                 C    2000.00000       0.50000       0.50000  L-C-C-C-CL                 
                                                                                                                               250.00000       1.40000       0.16000     100.80000       1.16009      17.00000      39.70000      43.30000       2.00000       0.36000       0.28000       0.00000       0.00000       4.60000  
                                                                                                                               710.00000       1.48000       0.14000       3.24000       0.29002      47.50000      29.20000      23.30000       2.00000       0.36000       0.24000       0.00000       0.00000       4.60000  
                                                                                                                               990.00000       1.48000       0.14000       3.24000       0.29002      47.50000      29.20000      23.30000      14.00000       0.36000       0.24000       0.00000       0.00000       4.60000  
                                                                                                                              1300.00000       1.48000       0.14000       3.24000       0.14501      47.50000      29.20000      23.30000       3.00000       0.36000       0.24000       0.00000       0.00000       4.60000  
                                                                                                                              2000.00000       1.48000       0.16000       3.24000       0.14501      35.00000      31.70000      33.30000       3.00000       0.36000       0.24000       0.00000       0.00000       4.60000  
Ross                              3                 B    2000.00000       0.50000       0.50000  L-L-L                      
                                                                                                                               250.00000       1.33000       0.22000      32.40000       0.58005      17.00000      39.70000      43.30000       3.00000       0.16000       0.32000       0.00000       0.00000       7.00000  
                                                                                                                               890.00000       1.35000       0.19000      32.40000       0.58005      25.00000      36.50000      38.50000       3.00000       0.16000       0.32000       0.00000       0.00000       7.30000  
                                                                                                                              2000.00000       1.48000       0.12000      82.80000       0.14501      15.00000      40.70000      44.30000      14.00000       0.16000       0.32000       0.00000       0.00000       7.30000  
Berks                             4                 C    2000.00000       0.50000       0.50000  CN-SIL-CNV-SIL-CNX-SIL-BR  
                                                                                                                               180.00000       1.35000       0.10000      82.80000       1.16009      14.00000      55.60000      30.40000      30.00000       0.25000       0.43000       0.00000       0.00000       5.10000  
                                                                                                                               580.00000       1.40000       0.07000      82.80000       0.14501      14.00000      55.60000      30.40000      45.00000       0.25000       0.43000       0.00000       0.00000       5.10000  
                                                                                                                               840.00000       1.40000       0.07000     100.80000       0.14501      14.00000      55.60000      30.40000      70.00000       0.25000       0.43000       0.00000       0.00000       5.10000  
                                                                                                                              2000.00000       0.00000       0.00000       0.03600       0.00000       0.00000       0.00000       0.00000       0.00000       0.25000       0.00000       0.00000       0.00000       0.00000  
Hayter                            3                 B    2000.00000       0.50000       0.50000  L-CB-SCL-CB-L              
                                                                                                                               360.00000       1.40000       0.13000     100.80000       1.16009      17.50000      39.50000      43.00000       7.00000       0.36000       0.28000       0.00000       0.00000       5.80000  
                                                                                                                              1400.00000       1.45000       0.15000     100.80000       0.58005      27.50000      17.40000      55.10000      20.00000       0.36000       0.28000       0.00000       0.00000       5.80000  
                                                                                                                              2000.00000       1.45000       0.08000     100.80000       0.14501      21.00000      37.40000      41.60000      34.00000       0.36000       0.24000       0.00000       0.00000       5.80000  
Guernsey                          4                 C    2110.00000       0.50000       0.50000  SIL-SICL-C-SICL            
                                                                                                                               250.00000       1.40000       0.22000      32.40000       1.16009      20.00000      53.50000      26.50000       7.00000       0.36000       0.43000       0.00000       0.00000       5.90000  
                                                                                                                               510.00000       1.45000       0.18000      27.72000       0.58005      30.00000      52.60000      17.40000      10.00000       0.36000       0.43000       0.00000       0.00000       5.30000  
                                                                                                                              1350.00000       1.50000       0.13000       7.92000       0.29002      47.50000      29.20000      23.30000      10.00000       0.36000       0.32000       0.00000       0.00000       6.20000  
                                                                                                                              2110.00000       1.50000       0.08000       7.92000       0.14501      35.00000      48.10000      16.90000      10.00000       0.36000       0.32000       0.00000       0.00000       6.80000  
Caneyville                        3                 C    2000.00000       0.50000       0.50000  SIL-C-BR                   
                                                                                                                               200.00000       1.30000       0.19000      32.40000       1.16009      17.50000      53.40000      29.10000       3.00000       0.36000       0.43000       0.00000       0.00000       5.90000  
                                                                                                                               810.00000       1.48000       0.15000       9.72000       0.05800      48.00000      28.90000      23.10000       3.00000       0.36000       0.28000       0.00000       0.00000       5.90000  
                                                                                                                              2000.00000       0.00000       0.00000       0.00000       0.00000       0.00000       0.00000       0.00000       0.00000       0.36000       0.00000       0.00000       0.00000       0.00000  
Urban                             1                 B    1000.00000       0.50000       0.50000  DUMMY                      
                                                                                                                               500.00000       1.38000       0.18000      32.40000       1.16009      31.00000      33.60000      35.40000       4.00000       0.28000       0.00000       0.00000       0.00000       5.00000  
McGary                            3                 C    2000.00000       0.50000       0.50000  SIL-SIC-C                  
                                                                                                                               230.00000       1.43000       0.23000      32.40000       1.45012      24.50000      54.60000      20.90000       0.00000       0.49000       0.43000       0.00000       0.00000       6.70000  
                                                                                                                               940.00000       1.65000       0.12000       3.24000       0.58005      42.50000      49.80000       7.70000       2.00000       0.49000       0.32000       0.00000       0.00000       6.70000  
                                                                                                                              2000.00000       1.60000       0.15000       3.24000       0.14501      42.50000      29.40000      28.10000       2.00000       0.49000       0.32000       0.00000       0.00000       8.20000  
Weaver                            3                 C    2000.00000       0.50000       0.50000  SIL-SIL-GR-SICL            
                                                                                                                               250.00000       1.43000       0.18000      32.40000       1.74014      26.50000      54.30000      19.20000       2.00000       0.36000       0.37000       0.00000       0.00000       7.50000  
                                                                                                                              1240.00000       1.43000       0.18000      32.40000       0.87007      26.50000      54.30000      19.20000       2.00000       0.36000       0.37000       0.00000       0.00000       7.50000  
                                                                                                                              2000.00000       1.43000       0.18000      32.40000       0.43503      28.00000      54.20000      17.80000      20.00000       0.36000       0.37000       0.00000       0.00000       7.90000  
