time.sim: written by SWAT+ editor v2.3.3 on 2025-03-05 17:01 for SWAT+ rev.60.5.7
day_start  yrc_start   day_end   yrc_end      step  
       0      2025         1      2025         0  
