tmp.cli: Temperature file names - file written by SWAT+ editor 2025-02-03 14:45:13.632363
filename
strtmp.tmp
