topography.hyd: written by SWAT+ editor v2.3.3 on 2025-03-05 17:01 for SWAT+ rev.60.5.7
name                       slp       slp_len       lat_len      dist_cha         depos  
topohru001             0.08150      10.00000      10.00000     121.00000       0.00000  
topohru002             0.05883      30.00000      30.00000     121.00000       0.00000  
topohru003             0.12512      10.00000      10.00000     121.00000       0.00000  
topohru004             0.02187      90.00000      90.00000     121.00000       0.00000  
topohru005             0.12006      10.00000      10.00000     121.00000       0.00000  
topohru006             0.05474      30.00000      30.00000     121.00000       0.00000  
topohru007             0.11563      10.00000      10.00000     121.00000       0.00000  
topohru008             0.05377      30.00000      30.00000     121.00000       0.00000  
topohru009             0.14078      10.00000      10.00000     121.00000       0.00000  
topohru010             0.05508      30.00000      30.00000     121.00000       0.00000  
topohru011             0.08343      10.00000      10.00000     121.00000       0.00000  
topohru012             0.06651      30.00000      30.00000     121.00000       0.00000  
topohru013             0.11539      10.00000      10.00000     121.00000       0.00000  
topohru014             0.03940      60.00000      60.00000     121.00000       0.00000  
topohru015             0.08399      10.00000      10.00000     121.00000       0.00000  
topohru016             0.08325      10.00000      10.00000     121.00000       0.00000  
topohru017             0.10017      10.00000      10.00000     121.00000       0.00000  
topohru018             0.02548      90.00000      90.00000     121.00000       0.00000  
topohru019             0.07273      30.00000      30.00000     121.00000       0.00000  
topohru020             0.02538      90.00000      90.00000     121.00000       0.00000  
topohru021             0.10132      10.00000      10.00000     121.00000       0.00000  
topohru022             0.05652      30.00000      30.00000     121.00000       0.00000  
topohru023             0.07725      30.00000      30.00000     121.00000       0.00000  
topohru024             0.03765      60.00000      60.00000     121.00000       0.00000  
topohru025             0.04767      60.00000      60.00000     121.00000       0.00000  
topohru026             0.02911      90.00000      90.00000     121.00000       0.00000  
topohru027             0.04151      60.00000      60.00000     121.00000       0.00000  
topohru028             0.03030      60.00000      60.00000     121.00000       0.00000  
topohru029             0.03067      60.00000      60.00000     121.00000       0.00000  
topohru030             0.02326      90.00000      90.00000     121.00000       0.00000  
topohru031             0.09820      10.00000      10.00000     121.00000       0.00000  
topohru032             0.01578      90.00000      90.00000     121.00000       0.00000  
topohru033             0.09026      10.00000      10.00000     121.00000       0.00000  
topohru034             0.04096      60.00000      60.00000     121.00000       0.00000  
topohru035             0.11912      10.00000      10.00000     121.00000       0.00000  
topohru036             0.01572      90.00000      90.00000     121.00000       0.00000  
topohru037             0.04192      60.00000      60.00000     121.00000       0.00000  
topohru038             0.02346      90.00000      90.00000     121.00000       0.00000  
topohru039             0.05787      30.00000      30.00000     121.00000       0.00000  
topohru040             0.03061      60.00000      60.00000     121.00000       0.00000  
topohru041             0.10225      10.00000      10.00000     121.00000       0.00000  
topohru042             0.02156      90.00000      90.00000     121.00000       0.00000  
topohru043             0.06221      30.00000      30.00000     121.00000       0.00000  
topohru044             0.04235      60.00000      60.00000     121.00000       0.00000  
topohru045             0.04570      60.00000      60.00000     121.00000       0.00000  
topohru046             0.07416      30.00000      30.00000     121.00000       0.00000  
topohru047             0.03895      60.00000      60.00000     121.00000       0.00000  
topohru048             0.03368      60.00000      60.00000     121.00000       0.00000  
topohru049             0.03163      60.00000      60.00000     121.00000       0.00000  
topohru050             0.07937      30.00000      30.00000     121.00000       0.00000  
topohru051             0.08039      10.00000      10.00000     121.00000       0.00000  
topohru052             0.10075      10.00000      10.00000     121.00000       0.00000  
topohru053             0.01378      90.00000      90.00000     121.00000       0.00000  
topohru054             0.07483      30.00000      30.00000     121.00000       0.00000  
topohru055             0.03608      60.00000      60.00000     121.00000       0.00000  
topohru056             0.07676      30.00000      30.00000     121.00000       0.00000  
topohru057             0.06603      30.00000      30.00000     121.00000       0.00000  
topohru058             0.05868      30.00000      30.00000     121.00000       0.00000  
topohru059             0.06244      30.00000      30.00000     121.00000       0.00000  
topohru060             0.08675      10.00000      10.00000     121.00000       0.00000  
topohru061             0.06767      30.00000      30.00000     121.00000       0.00000  
topohru062             0.06082      30.00000      30.00000     121.00000       0.00000  
topohru063             0.04688      60.00000      60.00000     121.00000       0.00000  
topohru064             0.03274      60.00000      60.00000     121.00000       0.00000  
topohru065             0.05267      30.00000      30.00000     121.00000       0.00000  
topohru066             0.03395      60.00000      60.00000     121.00000       0.00000  
topohru067             0.07550      30.00000      30.00000     121.00000       0.00000  
topohru068             0.01374      90.00000      90.00000     121.00000       0.00000  
topohru069             0.06861      30.00000      30.00000     121.00000       0.00000  
topohru070             0.01311      90.00000      90.00000     121.00000       0.00000  
topohru071             0.01802      90.00000      90.00000     121.00000       0.00000  
topohru072             0.14219      10.00000      10.00000     121.00000       0.00000  
topohru073             0.00339     121.00000     121.00000     121.00000       0.00000  
topohru074             0.08911      10.00000      10.00000     121.00000       0.00000  
topohru075             0.06313      30.00000      30.00000     121.00000       0.00000  
topohru076             0.09593      10.00000      10.00000     121.00000       0.00000  
topohru077             0.07227      30.00000      30.00000     121.00000       0.00000  
topohru078             0.06286      30.00000      30.00000     121.00000       0.00000  
topohru079             0.05076      30.00000      30.00000     121.00000       0.00000  
topohru080             0.05097      30.00000      30.00000     121.00000       0.00000  
topohru081             0.00984     121.00000     121.00000     121.00000       0.00000  
topohru082             0.05989      30.00000      30.00000     121.00000       0.00000  
topohru083             0.04347      60.00000      60.00000     121.00000       0.00000  
topohru084             0.04273      60.00000      60.00000     121.00000       0.00000  
topohru085             0.08671      10.00000      10.00000     121.00000       0.00000  
topohru086             0.02235      90.00000      90.00000     121.00000       0.00000  
topohru087             0.11888      10.00000      10.00000     121.00000       0.00000  
topohru088             0.03079      60.00000      60.00000     121.00000       0.00000  
topohru089             0.05712      30.00000      30.00000     121.00000       0.00000  
topohru090             0.08251      10.00000      10.00000     121.00000       0.00000  
topohru091             0.04533      60.00000      60.00000     121.00000       0.00000  
topohru092             0.09250      10.00000      10.00000     121.00000       0.00000  
topohru093             0.08298      10.00000      10.00000     121.00000       0.00000  
topohru094             0.04662      60.00000      60.00000     121.00000       0.00000  
topohru095             0.07728      30.00000      30.00000     121.00000       0.00000  
topohru096             0.12319      10.00000      10.00000     121.00000       0.00000  
topohru097             0.19520      10.00000      10.00000     121.00000       0.00000  
topohru098             0.06987      30.00000      30.00000     121.00000       0.00000  
topohru099             0.07868      30.00000      30.00000     121.00000       0.00000  
topohru100             0.33434      10.00000      10.00000     121.00000       0.00000  
topohru101             0.08203      10.00000      10.00000     121.00000       0.00000  
topohru102             0.07151      30.00000      30.00000     121.00000       0.00000  
topohru103             0.06215      30.00000      30.00000     121.00000       0.00000  
topohru104             0.05921      30.00000      30.00000     121.00000       0.00000  
topohru105             0.23579      10.00000      10.00000     121.00000       0.00000  
topohru106             0.12116      10.00000      10.00000     121.00000       0.00000  
topohru107             0.05467      30.00000      30.00000     121.00000       0.00000  
topohru108             0.09326      10.00000      10.00000     121.00000       0.00000  
topohru109             0.09024      10.00000      10.00000     121.00000       0.00000  
topohru110             0.09837      10.00000      10.00000     121.00000       0.00000  
topohru111             0.02950      90.00000      90.00000     121.00000       0.00000  
topohru112             0.08054      10.00000      10.00000     121.00000       0.00000  
topohru113             0.10673      10.00000      10.00000     121.00000       0.00000  
topohru114             0.10565      10.00000      10.00000     121.00000       0.00000  
topohru115             0.10709      10.00000      10.00000     121.00000       0.00000  
topohru116             0.05765      30.00000      30.00000     121.00000       0.00000  
topohru117             0.06373      30.00000      30.00000     121.00000       0.00000  
topohru118             0.09329      10.00000      10.00000     121.00000       0.00000  
topohru119             0.16671      10.00000      10.00000     121.00000       0.00000  
topohru120             0.02662      90.00000      90.00000     121.00000       0.00000  
topohru121             0.05238      30.00000      30.00000     121.00000       0.00000  
topohru122             0.07316      30.00000      30.00000     121.00000       0.00000  
topohru123             0.07944      30.00000      30.00000     121.00000       0.00000  
topohru124             0.04155      60.00000      60.00000     121.00000       0.00000  
topohru125             0.05401      30.00000      30.00000     121.00000       0.00000  
topohru126             0.13376      10.00000      10.00000     121.00000       0.00000  
topohru127             0.05789      30.00000      30.00000     121.00000       0.00000  
topohru128             0.11759      10.00000      10.00000     121.00000       0.00000  
topohru129             0.06660      30.00000      30.00000     121.00000       0.00000  
topohru130             0.06288      30.00000      30.00000     121.00000       0.00000  
topohru131             0.06723      30.00000      30.00000     121.00000       0.00000  
topohru132             0.06252      30.00000      30.00000     121.00000       0.00000  
topohru133             0.03493      60.00000      60.00000     121.00000       0.00000  
topohru134             0.11149      10.00000      10.00000     121.00000       0.00000  
topohru135             0.04986      60.00000      60.00000     121.00000       0.00000  
topohru136             0.08495      10.00000      10.00000     121.00000       0.00000  
topohru137             0.11316      10.00000      10.00000     121.00000       0.00000  
topohru138             0.05383      30.00000      30.00000     121.00000       0.00000  
topohru139             0.09602      10.00000      10.00000     121.00000       0.00000  
topohru140             0.06475      30.00000      30.00000     121.00000       0.00000  
topohru141             0.09258      10.00000      10.00000     121.00000       0.00000  
topohru142             0.08993      10.00000      10.00000     121.00000       0.00000  
topohru143             0.08461      10.00000      10.00000     121.00000       0.00000  
topohru144             0.06750      30.00000      30.00000     121.00000       0.00000  
topohru145             0.06962      30.00000      30.00000     121.00000       0.00000  
topohru146             0.04770      60.00000      60.00000     121.00000       0.00000  
topohru147             0.10135      10.00000      10.00000     121.00000       0.00000  
topohru148             0.06409      30.00000      30.00000     121.00000       0.00000  
topohru149             0.07400      30.00000      30.00000     121.00000       0.00000  
topohru150             0.07194      30.00000      30.00000     121.00000       0.00000  
topohru151             0.09300      10.00000      10.00000     121.00000       0.00000  
topohru152             0.05161      30.00000      30.00000     121.00000       0.00000  
topohru153             0.05581      30.00000      30.00000     121.00000       0.00000  
topohru154             0.05801      30.00000      30.00000     121.00000       0.00000  
topohru155             0.09220      10.00000      10.00000     121.00000       0.00000  
topohru156             0.06172      30.00000      30.00000     121.00000       0.00000  
topohru157             0.09431      10.00000      10.00000     121.00000       0.00000  
topohru158             0.07281      30.00000      30.00000     121.00000       0.00000  
topohru159             0.10076      10.00000      10.00000     121.00000       0.00000  
topohru160             0.09394      10.00000      10.00000     121.00000       0.00000  
topohru161             0.07706      30.00000      30.00000     121.00000       0.00000  
topohru162             0.05453      30.00000      30.00000     121.00000       0.00000  
topohru163             0.06414      30.00000      30.00000     121.00000       0.00000  
topohru164             0.10205      10.00000      10.00000     121.00000       0.00000  
topohru165             0.06230      30.00000      30.00000     121.00000       0.00000  
topohru166             0.08787      10.00000      10.00000     121.00000       0.00000  
topohru167             0.06359      30.00000      30.00000     121.00000       0.00000  
topohru168             0.12979      10.00000      10.00000     121.00000       0.00000  
topohru169             0.09496      10.00000      10.00000     121.00000       0.00000  
topohru170             0.06440      30.00000      30.00000     121.00000       0.00000  
topohru171             0.08250      10.00000      10.00000     121.00000       0.00000  
topohru172             0.04923      60.00000      60.00000     121.00000       0.00000  
topohru173             0.07899      30.00000      30.00000     121.00000       0.00000  
topohru174             0.03390      60.00000      60.00000     121.00000       0.00000  
topohru175             0.09064      10.00000      10.00000     121.00000       0.00000  
topohru176             0.04427      60.00000      60.00000     121.00000       0.00000  
topohru177             0.07059      30.00000      30.00000     121.00000       0.00000  
topohru178             0.05109      30.00000      30.00000     121.00000       0.00000  
topohru179             0.06738      30.00000      30.00000     121.00000       0.00000  
topohru180             0.04923      60.00000      60.00000     121.00000       0.00000  
topohru181             0.05666      30.00000      30.00000     121.00000       0.00000  
topohru182             0.08374      10.00000      10.00000     121.00000       0.00000  
topohru183             0.06076      30.00000      30.00000     121.00000       0.00000  
topohru184             0.05659      30.00000      30.00000     121.00000       0.00000  
topohru185             0.06555      30.00000      30.00000     121.00000       0.00000  
topohru186             0.06759      30.00000      30.00000     121.00000       0.00000  
topohru187             0.07961      30.00000      30.00000     121.00000       0.00000  
topohru188             0.02861      90.00000      90.00000     121.00000       0.00000  
topohru189             0.10706      10.00000      10.00000     121.00000       0.00000  
topohru190             0.08308      10.00000      10.00000     121.00000       0.00000  
topohru191             0.06878      30.00000      30.00000     121.00000       0.00000  
topohru192             0.11649      10.00000      10.00000     121.00000       0.00000  
topohru193             0.02761      90.00000      90.00000     121.00000       0.00000  
topohru194             0.04914      60.00000      60.00000     121.00000       0.00000  
topohru195             0.07596      30.00000      30.00000     121.00000       0.00000  
topohru196             0.07870      30.00000      30.00000     121.00000       0.00000  
topohru197             0.05635      30.00000      30.00000     121.00000       0.00000  
topohru198             0.04372      60.00000      60.00000     121.00000       0.00000  
topohru199             0.07229      30.00000      30.00000     121.00000       0.00000  
topohru200             0.12841      10.00000      10.00000     121.00000       0.00000  
topohru201             0.11240      10.00000      10.00000     121.00000       0.00000  
topohru202             0.10862      10.00000      10.00000     121.00000       0.00000  
topohru203             0.12467      10.00000      10.00000     121.00000       0.00000  
topohru204             0.04448      60.00000      60.00000     121.00000       0.00000  
topohru205             0.03661      60.00000      60.00000     121.00000       0.00000  
topohru206             0.06713      30.00000      30.00000     121.00000       0.00000  
topohru207             0.03660      60.00000      60.00000     121.00000       0.00000  
topohru208             0.03801      60.00000      60.00000     121.00000       0.00000  
topohru209             0.11176      10.00000      10.00000     121.00000       0.00000  
topohru210             0.03606      60.00000      60.00000     121.00000       0.00000  
topohru211             0.07918      30.00000      30.00000     121.00000       0.00000  
topohru212             0.04330      60.00000      60.00000     121.00000       0.00000  
topohru213             0.09384      10.00000      10.00000     121.00000       0.00000  
topohru214             0.06455      30.00000      30.00000     121.00000       0.00000  
topohru215             0.09113      10.00000      10.00000     121.00000       0.00000  
topohru216             0.07008      30.00000      30.00000     121.00000       0.00000  
topohru217             0.09135      10.00000      10.00000     121.00000       0.00000  
topohru218             0.06627      30.00000      30.00000     121.00000       0.00000  
topohru219             0.08958      10.00000      10.00000     121.00000       0.00000  
topohru220             0.03914      60.00000      60.00000     121.00000       0.00000  
topohru221             0.05970      30.00000      30.00000     121.00000       0.00000  
topohru222             0.04391      60.00000      60.00000     121.00000       0.00000  
topohru223             0.11377      10.00000      10.00000     121.00000       0.00000  
topohru224             0.05720      30.00000      30.00000     121.00000       0.00000  
topohru225             0.17012      10.00000      10.00000     121.00000       0.00000  
topohru226             0.01930      90.00000      90.00000     121.00000       0.00000  
topohru227             0.15212      10.00000      10.00000     121.00000       0.00000  
topohru228             0.02604      90.00000      90.00000     121.00000       0.00000  
topohru229             0.06904      30.00000      30.00000     121.00000       0.00000  
topohru230             0.03771      60.00000      60.00000     121.00000       0.00000  
topohru231             0.15842      10.00000      10.00000     121.00000       0.00000  
topohru232             0.06831      30.00000      30.00000     121.00000       0.00000  
topohru233             0.06017      30.00000      30.00000     121.00000       0.00000  
topohru234             0.08792      10.00000      10.00000     121.00000       0.00000  
topohru235             0.09288      10.00000      10.00000     121.00000       0.00000  
topohru236             0.07123      30.00000      30.00000     121.00000       0.00000  
topohru237             0.09017      10.00000      10.00000     121.00000       0.00000  
topohru238             0.05568      30.00000      30.00000     121.00000       0.00000  
topohru239             0.08556      10.00000      10.00000     121.00000       0.00000  
topohru240             0.05740      30.00000      30.00000     121.00000       0.00000  
topohru241             0.05595      30.00000      30.00000     121.00000       0.00000  
topohru242             0.09340      10.00000      10.00000     121.00000       0.00000  
topohru243             0.07854      30.00000      30.00000     121.00000       0.00000  
topohru244             0.07690      30.00000      30.00000     121.00000       0.00000  
topohru245             0.05091      30.00000      30.00000     121.00000       0.00000  
topohru246             0.07433      30.00000      30.00000     121.00000       0.00000  
topohru247             0.06361      30.00000      30.00000     121.00000       0.00000  
topohru248             0.03010      60.00000      60.00000     121.00000       0.00000  
topohru249             0.05010      30.00000      30.00000     121.00000       0.00000  
topohru250             0.04736      60.00000      60.00000     121.00000       0.00000  
topohru251             0.08458      10.00000      10.00000     121.00000       0.00000  
topohru252             0.04364      60.00000      60.00000     121.00000       0.00000  
topohru253             0.07692      30.00000      30.00000     121.00000       0.00000  
topohru254             0.05604      30.00000      30.00000     121.00000       0.00000  
topohru255             0.10170      10.00000      10.00000     121.00000       0.00000  
topohru256             0.04343      60.00000      60.00000     121.00000       0.00000  
topohru257             0.06940      30.00000      30.00000     121.00000       0.00000  
topohru258             0.03505      60.00000      60.00000     121.00000       0.00000  
topohru259             0.13021      10.00000      10.00000     121.00000       0.00000  
topohru260             0.05413      30.00000      30.00000     121.00000       0.00000  
topohru261             0.13538      10.00000      10.00000     121.00000       0.00000  
topohru262             0.05749      30.00000      30.00000     121.00000       0.00000  
topohru263             0.09215      10.00000      10.00000     121.00000       0.00000  
topohru264             0.08427      10.00000      10.00000     121.00000       0.00000  
topohru265             0.07167      30.00000      30.00000     121.00000       0.00000  
topohru266             0.05404      30.00000      30.00000     121.00000       0.00000  
topohru267             0.18253      10.00000      10.00000     121.00000       0.00000  
topohru268             0.01124      90.00000      90.00000     121.00000       0.00000  
topohru269             0.15534      10.00000      10.00000     121.00000       0.00000  
topohru270             0.04109      60.00000      60.00000     121.00000       0.00000  
topohru271             0.12676      10.00000      10.00000     121.00000       0.00000  
topohru272             0.04759      60.00000      60.00000     121.00000       0.00000  
topohru273             0.02140      90.00000      90.00000     121.00000       0.00000  
topohru274             0.12792      10.00000      10.00000     121.00000       0.00000  
topohru275             0.12732      10.00000      10.00000     121.00000       0.00000  
topohru276             0.06657      30.00000      30.00000     121.00000       0.00000  
topohru277             0.01858      90.00000      90.00000     121.00000       0.00000  
topohru278             0.15920      10.00000      10.00000     121.00000       0.00000  
topohru279             0.10798      10.00000      10.00000     121.00000       0.00000  
topohru280             0.06948      30.00000      30.00000     121.00000       0.00000  
topohru281             0.16207      10.00000      10.00000     121.00000       0.00000  
topohru282             0.04533      60.00000      60.00000     121.00000       0.00000  
topohru283             0.11678      10.00000      10.00000     121.00000       0.00000  
topohru284             0.11181      10.00000      10.00000     121.00000       0.00000  
topohru285             0.16603      10.00000      10.00000     121.00000       0.00000  
topohru286             0.03607      60.00000      60.00000     121.00000       0.00000  
topohru287             0.07693      30.00000      30.00000     121.00000       0.00000  
topohru288             0.09961      10.00000      10.00000     121.00000       0.00000  
topohru289             0.13633      10.00000      10.00000     121.00000       0.00000  
topohru290             0.05428      30.00000      30.00000     121.00000       0.00000  
topohru291             0.12743      10.00000      10.00000     121.00000       0.00000  
topohru292             0.03466      60.00000      60.00000     121.00000       0.00000  
topohru293             0.12431      10.00000      10.00000     121.00000       0.00000  
topohru294             0.01683      90.00000      90.00000     121.00000       0.00000  
topohru295             0.02900      90.00000      90.00000     121.00000       0.00000  
topohru296             0.10538      10.00000      10.00000     121.00000       0.00000  
topohru297             0.04861      60.00000      60.00000     121.00000       0.00000  
topohru298             0.10032      10.00000      10.00000     121.00000       0.00000  
topohru299             0.07767      30.00000      30.00000     121.00000       0.00000  
topohru300             0.10916      10.00000      10.00000     121.00000       0.00000  
topohru301             0.08300      10.00000      10.00000     121.00000       0.00000  
topohru302             0.04112      60.00000      60.00000     121.00000       0.00000  
topohru303             0.06149      30.00000      30.00000     121.00000       0.00000  
topohru304             0.03818      60.00000      60.00000     121.00000       0.00000  
topohru305             0.06480      30.00000      30.00000     121.00000       0.00000  
topohru306             0.03218      60.00000      60.00000     121.00000       0.00000  
topohru307             0.07210      30.00000      30.00000     121.00000       0.00000  
topohru308             0.04376      60.00000      60.00000     121.00000       0.00000  
topohru309             0.06390      30.00000      30.00000     121.00000       0.00000  
topohru310             0.05676      30.00000      30.00000     121.00000       0.00000  
topohru311             0.06079      30.00000      30.00000     121.00000       0.00000  
topohru312             0.07040      30.00000      30.00000     121.00000       0.00000  
topohru313             0.09115      10.00000      10.00000     121.00000       0.00000  
topohru314             0.06328      30.00000      30.00000     121.00000       0.00000  
topohru315             0.07375      30.00000      30.00000     121.00000       0.00000  
topohru316             0.05039      30.00000      30.00000     121.00000       0.00000  
topohru317             0.07136      30.00000      30.00000     121.00000       0.00000  
topohru318             0.05641      30.00000      30.00000     121.00000       0.00000  
topohru319             0.09319      10.00000      10.00000     121.00000       0.00000  
topohru320             0.03758      60.00000      60.00000     121.00000       0.00000  
topohru321             0.09894      10.00000      10.00000     121.00000       0.00000  
topohru322             0.04644      60.00000      60.00000     121.00000       0.00000  
topohru323             0.08111      10.00000      10.00000     121.00000       0.00000  
topohru324             0.05475      30.00000      30.00000     121.00000       0.00000  
topohru325             0.08008      10.00000      10.00000     121.00000       0.00000  
topohru326             0.04172      60.00000      60.00000     121.00000       0.00000  
topohru327             0.09338      10.00000      10.00000     121.00000       0.00000  
topohru328             0.13665      10.00000      10.00000     121.00000       0.00000  
topohru329             0.08354      10.00000      10.00000     121.00000       0.00000  
topohru330             0.05194      30.00000      30.00000     121.00000       0.00000  
topohru331             0.03779      60.00000      60.00000     121.00000       0.00000  
topohru332             0.09478      10.00000      10.00000     121.00000       0.00000  
topohru333             0.07411      30.00000      30.00000     121.00000       0.00000  
topohru334             0.06040      30.00000      30.00000     121.00000       0.00000  
topohru335             0.09120      10.00000      10.00000     121.00000       0.00000  