weather-wgn.cli: written by SWAT+ editor v2.3.3 on 2025-03-05 17:01 for SWAT+ rev.60.5.7
370n800w                       36.99910     -80.00000     426.00000        32  
 tmp_max_ave   tmp_min_ave    tmp_max_sd    tmp_min_sd       pcp_ave        pcp_sd      pcp_skew       wet_dry       wet_wet      pcp_days       pcp_hhr       slr_ave       dew_ave       wnd_ave  
     5.49638      -3.54856       5.84665       5.93472     102.04700       7.63533       3.54420       0.30519       0.33777      11.75000      22.43590       8.44454       0.76078       3.98974  
     7.34822      -2.52300       5.86666       5.40201      96.29750       7.44169       3.28878       0.33270       0.36800      11.71880      19.37870      11.25340       0.75781       3.92878  
    12.09700       1.40978       5.93467       5.41741     127.69100       8.41483       3.17118       0.39293       0.39544      15.09380      22.48550      14.98880       0.75350       3.84724  
    18.06450       6.07632       6.00942       5.13992     112.41700       7.17597       2.90321       0.36345       0.40043      14.43750      18.40900      18.92830       0.72039       3.61232  
    23.61380      10.48030       4.96038       4.44282     117.11100       6.86379       3.59804       0.33533       0.40204      15.31250      27.96130      21.28010       0.70657       2.95235  
    28.27020      15.00730       4.32217       3.59570     117.93300       7.54453       3.36283       0.34382       0.40373      15.09380      23.40770      23.10080       0.69699       2.52322  
    30.55010      17.38830       4.04712       2.83628     130.67600       7.33504       2.73459       0.32632       0.42360      16.15620      17.99440      22.46260       0.68700       2.31535  
    30.03310      16.48810       4.15596       3.05680     103.89000       8.79202       6.41572       0.26516       0.38554      12.96880      43.67620      20.50540       0.68118       2.21936  
    25.46750      12.59350       4.81244       4.23345     107.04300       9.14842       4.35230       0.20325       0.40870      10.78120      29.34140      17.29560       0.71025       2.48428  
    19.13010       7.08074       5.23102       4.72884      85.97990       7.94923       4.31174       0.19884       0.37294       9.46875      24.76980      13.42960       0.71290       2.89629  
    12.98200       2.73776       5.33253       5.10920      95.93830       8.16486       4.23750       0.25914       0.37430      11.18750      27.82730       9.14944       0.73851       3.42333  
     7.29627      -1.77217       5.78123       5.60730      90.54380       6.71057       3.20277       0.30956       0.34783      11.50000      17.69820       7.59972       0.74858       3.76043  
370n803w                       36.99910     -80.31250     762.00000        32  
 tmp_max_ave   tmp_min_ave    tmp_max_sd    tmp_min_sd       pcp_ave        pcp_sd      pcp_skew       wet_dry       wet_wet      pcp_days       pcp_hhr       slr_ave       dew_ave       wnd_ave  
     4.77112      -4.30869       5.92338       6.17292     101.81500       7.57624       3.51866       0.32279       0.33504      12.21880      20.80920       8.39127       0.78280       4.28014  
     6.60802      -3.23955       5.92941       5.62220      96.53140       7.43022       3.32221       0.35125       0.37076      11.96880      20.57670      11.16580       0.77698       4.15937  
    11.25680       0.71403       5.97413       5.56863     126.86200       8.35620       3.18080       0.40361       0.39676      15.43750      21.15170      14.86320       0.77071       4.02649  
    17.18150       5.41841       6.08470       5.24290     113.09300       6.97446       2.89530       0.39121       0.40456      15.06250      20.24270      18.74490       0.73374       3.75568  
    22.75760       9.74985       4.95616       4.57281     117.60800       6.66070       3.41396       0.36059       0.40856      16.06250      25.23780      21.15250       0.71731       3.04811  
    27.30710      14.23290       4.24367       3.66428     118.68400       7.44026       3.65846       0.35870       0.41200      15.62500      25.46550      23.02360       0.71122       2.61026  
    29.50110      16.52300       3.96710       2.94426     131.01500       7.09375       2.81792       0.33909       0.41966      16.53120      19.16360      22.56170       0.70361       2.39299  
    29.09660      15.57590       4.08376       3.21227     103.27200       8.68938       6.66439       0.27993       0.38915      13.25000      42.76960      20.43430       0.69660       2.25991  
    24.68630      11.70240       4.76255       4.39879     103.46600       8.61372       4.19319       0.22278       0.39945      11.34380      26.69060      17.18280       0.72242       2.52968  
    18.42420       6.40244       5.24330       4.80281      85.24650       7.90086       4.56244       0.21217       0.37107       9.93750      29.58380      13.39850       0.72057       2.99728  
    12.34590       2.08500       5.38343       5.23259      93.27350       7.72590       3.96275       0.27027       0.37772      11.50000      23.90460       9.09606       0.74828       3.60056  
     6.65626      -2.52181       5.85753       5.89990      90.26720       6.60311       3.13243       0.31743       0.35013      11.78120      16.82640       7.58544       0.76517       4.00981  
370n806w                       36.99910     -80.62500     747.00000        32  
 tmp_max_ave   tmp_min_ave    tmp_max_sd    tmp_min_sd       pcp_ave        pcp_sd      pcp_skew       wet_dry       wet_wet      pcp_days       pcp_hhr       slr_ave       dew_ave       wnd_ave  
     4.29963      -4.80415       5.99650       6.32871      97.58710       7.06046       3.42289       0.35484       0.35945      13.56250      19.21040       8.28411       0.79304       4.66091  
     6.07380      -3.67735       5.98371       5.77509      93.32830       7.02841       3.33617       0.39331       0.37559      13.31250      20.49980      11.01960       0.78738       4.47502  
    10.64370       0.20141       6.03107       5.70296     121.67800       8.00038       3.36563       0.40452       0.40000      15.78120      24.09090      14.70410       0.77999       4.28420  
    16.46900       4.89009       6.14790       5.36180     109.42100       6.61993       3.03195       0.40308       0.40514      15.81250      22.23430      18.59200       0.74234       3.95903  
    22.04160       9.16812       4.94707       4.71287     111.63800       6.14979       3.06003       0.36681       0.40525      16.65620      18.03110      21.25920       0.72553       3.18078  
    26.58190      13.60270       4.14339       3.67375     113.39500       6.80112       3.76842       0.36000       0.40392      15.93750      22.80450      23.10200       0.72069       2.72838  
    28.62430      15.80290       3.85608       3.09524     123.43900       6.78122       3.27930       0.35177       0.42593      16.87500      19.92360      22.78980       0.71535       2.49476  
    28.35910      14.86750       3.97916       3.29093      96.82370       8.08198       7.03868       0.29422       0.38584      13.68750      36.60040      20.52760       0.70646       2.32422  
    24.12080      10.96170       4.69918       4.55677      95.39770       7.69506       4.11393       0.22335       0.39837      11.53120      24.57330      17.12520       0.73060       2.61075  
    17.89990       5.81565       5.25615       4.94542      79.88100       7.50270       5.04314       0.23123       0.35890      10.18750      33.08570      13.35580       0.72422       3.14851  
    11.91130       1.52818       5.45183       5.39869      87.00530       7.10749       3.84991       0.28276       0.38158      11.87500      19.79560       9.04399       0.75293       3.83994  
     6.21659      -3.05100       5.94394       6.13411      86.40460       6.18902       3.14003       0.35304       0.36098      12.81250      15.05880       7.53943       0.77392       4.33884  
370n809w                       36.99910     -80.93750     671.00000        32  
 tmp_max_ave   tmp_min_ave    tmp_max_sd    tmp_min_sd       pcp_ave        pcp_sd      pcp_skew       wet_dry       wet_wet      pcp_days       pcp_hhr       slr_ave       dew_ave       wnd_ave  
     4.02733      -5.02824       6.05712       6.45387      94.08170       6.35125       3.29031       0.44770       0.37938      16.06250      19.58120       8.13512       0.79912       4.92557  
     5.74573      -3.87893       6.01952       5.91904      91.24220       6.45608       3.16862       0.44208       0.39709      15.03120      16.36620      10.82560       0.79617       4.70104  
    10.27820      -0.14441       6.11242       5.90309     115.86300       7.37059       3.58445       0.44368       0.40754      17.40620      23.06650      14.53140       0.78751       4.45852  
    15.99080       4.49980       6.18030       5.49718     106.90100       6.31696       3.42548       0.42754       0.41575      17.06250      24.07460      18.47220       0.75060       4.09473  
    21.55340       8.66521       4.90209       4.84830     106.05900       5.66262       2.90721       0.38095       0.41091      17.18750      18.52430      21.37010       0.73296       3.27444  
    26.04440      13.03530       3.99153       3.69323     104.39700       6.14180       3.61598       0.39189       0.39147      16.12500      20.54670      23.32900       0.72874       2.79883  
    27.96350      15.18510       3.69493       3.18648     113.78600       6.55947       3.80302       0.36504       0.41296      16.87500      21.22860      22.94820       0.72508       2.54775  
    27.81850      14.29850       3.76875       3.23692      90.08150       7.24686       6.68156       0.28037       0.40044      14.28120      36.12820      20.72890       0.71431       2.35723  
    23.77900      10.46220       4.61265       4.58879      87.19160       6.94809       4.14479       0.22642       0.38992      11.78120      22.25900      17.15080       0.73555       2.66435  
    17.57290       5.43833       5.26022       5.11546      74.85430       6.86695       5.37207       0.24337       0.35897      10.96880      32.95710      13.30150       0.72708       3.24896  
    11.62900       1.22067       5.52840       5.58208      81.92320       6.51703       4.05339       0.30826       0.37831      12.96880      22.31610       9.00699       0.75618       4.01012  
     5.90621      -3.30836       6.01718       6.39457      83.22230       5.69521       3.20069       0.39024       0.36726      14.12500      13.91490       7.45351       0.78046       4.57945  
373n800w                       37.31130     -80.00000     340.00000        32  
 tmp_max_ave   tmp_min_ave    tmp_max_sd    tmp_min_sd       pcp_ave        pcp_sd      pcp_skew       wet_dry       wet_wet      pcp_days       pcp_hhr       slr_ave       dew_ave       wnd_ave  
     4.95296      -4.03806       5.92452       5.97557      93.46460       7.01774       3.41533       0.30049       0.33780      11.65620      18.91000       8.30604       0.76565       3.88601  
     6.81692      -3.10209       5.94087       5.43717      89.44610       6.99150       3.26915       0.33585       0.36096      11.68750      17.53060      11.20660       0.76140       3.77651  
    11.60090       0.81764       6.04382       5.41173     117.58700       8.11888       3.55509       0.37333       0.38972      14.59380      22.63810      15.08580       0.75447       3.67585  
    17.65000       5.54621       6.16603       5.13615      99.45300       6.59832       3.30181       0.35769       0.38636      13.75000      18.73460      19.20160       0.72144       3.46449  
    23.30920       9.91002       5.09259       4.52259      96.23150       6.04794       3.86195       0.33333       0.38841      14.56250      23.46360      21.73980       0.70488       2.83526  
    28.11810      14.41090       4.29710       3.67238      86.72190       6.20121       3.87921       0.30056       0.38005      13.15620      21.95260      23.89590       0.69084       2.49314  
    30.40580      16.82490       3.93971       2.98225      92.05560       5.79206       3.26921       0.30410       0.40351      14.25000      16.89700      23.45510       0.68037       2.30903  
    30.01660      15.85950       4.08634       3.21175      74.98310       7.63954       9.07576       0.22398       0.38268      11.18750      49.39600      21.27290       0.67550       2.16963  
    25.35760      11.97270       4.90553       4.33078      86.51800       7.83420       4.49668       0.19440       0.39748       9.90625      24.32040      17.58090       0.70667       2.37761  
    18.84930       6.54367       5.33768       4.75199      77.71090       7.35127       4.39620       0.19801       0.36207       9.06250      23.90790      13.54970       0.71272       2.77369  
    12.61980       2.26488       5.44984       5.12838      89.38450       7.90176       5.10576       0.25528       0.36522      10.78120      34.54570       9.06497       0.74028       3.26142  
     6.82523      -2.26018       5.83504       5.62801      87.06180       6.72614       3.69475       0.30351       0.34819      11.21880      22.31250       7.47241       0.75374       3.62566  
373n803w                       37.31130     -80.31250     733.00000        32  
 tmp_max_ave   tmp_min_ave    tmp_max_sd    tmp_min_sd       pcp_ave        pcp_sd      pcp_skew       wet_dry       wet_wet      pcp_days       pcp_hhr       slr_ave       dew_ave       wnd_ave  
     4.24987      -4.73254       6.05152       6.23323      92.72550       6.69210       3.23177       0.33157       0.36941      13.28120      17.70960       8.12304       0.79083       4.20485  
     6.09192      -3.71295       6.03554       5.65480      89.77380       6.89504       3.39440       0.37980       0.35941      12.78120      21.63650      10.96910       0.78367       4.03397  
    10.78850       0.18583       6.13286       5.60509     116.13200       7.90406       3.63542       0.38340       0.39918      15.18750      24.68810      14.81580       0.77296       3.86843  
    16.80210       5.00011       6.27544       5.26650     100.42000       6.30475       2.99915       0.38636       0.39706      14.87500      14.94530      18.92920       0.73561       3.59586  
    22.50950       9.24441       5.09806       4.69483      96.36870       5.78575       3.37770       0.34739       0.40365      15.40620      19.08130      21.65090       0.71639       2.92743  
    27.24670      13.64190       4.21905       3.76368      88.35880       6.16801       4.23785       0.32239       0.38914      13.81250      23.50270      23.85070       0.70584       2.56642  
    29.41030      15.96560       3.86506       3.12679      93.95040       5.90788       3.67722       0.31034       0.40213      14.68750      19.79690      23.60220       0.69736       2.37153  
    29.15670      14.98130       4.03099       3.32727      78.19170       7.65077       8.55096       0.24553       0.38727      11.78120      47.26010      21.25690       0.69088       2.20361  
    24.65330      11.14500       4.87024       4.47241      83.92660       7.32855       4.19425       0.19872       0.38988      10.50000      21.28750      17.49150       0.71870       2.42960  
    18.17530       5.93516       5.39378       4.85859      75.24110       7.04080       4.44188       0.20803       0.35254       9.21875      24.60100      13.45740       0.72065       2.88057  
    12.00940       1.70266       5.56567       5.27962      85.27940       7.24986       4.65457       0.28136       0.37568      11.56250      31.01350       8.92574       0.75043       3.45100  
     6.18954      -2.93547       5.96531       5.94743      86.29640       6.50281       3.83435       0.35284       0.34406      12.62500      24.03140       7.34930       0.77279       3.90306  
373n806w                       37.31130     -80.62500     517.00000        32  
 tmp_max_ave   tmp_min_ave    tmp_max_sd    tmp_min_sd       pcp_ave        pcp_sd      pcp_skew       wet_dry       wet_wet      pcp_days       pcp_hhr       slr_ave       dew_ave       wnd_ave  
     3.82302      -5.16668       6.17547       6.44640      90.82360       6.11503       3.09697       0.44124       0.36884      15.84380      16.09400       7.88546       0.80661       4.52522  
     5.64410      -4.06326       6.09991       5.83707      89.62060       6.52916       3.45045       0.43706       0.39752      15.09380      21.71590      10.66710       0.79839       4.31254  
    10.25770      -0.22979       6.23573       5.75364     112.34000       7.41027       3.85291       0.43946       0.41209      17.06250      24.90260      14.49080       0.78529       4.09808  
    16.21580       4.54536       6.35783       5.45329      99.74270       5.96995       2.85437       0.40225       0.40582      16.09380      14.89660      18.63820       0.74639       3.76123  
    21.91960       8.66651       5.09971       4.94685      97.48940       5.61944       3.17964       0.36188       0.40458      16.37500      17.12680      21.66810       0.72649       3.04840  
    26.59960      13.03630       4.11512       3.82289      88.48920       5.94818       4.42276       0.34280       0.39829      14.59380      19.61060      23.91060       0.71770       2.66008  
    28.62680      15.20070       3.79547       3.33536      97.02570       6.16308       4.29704       0.32271       0.40408      15.31250      23.93410      23.71980       0.71197       2.44813  
    28.49610      14.22520       3.91726       3.42023      77.54830       7.15428       7.63899       0.26094       0.38442      12.43750      39.90970      21.32930       0.70291       2.26136  
    24.18500      10.47750       4.81378       4.63897      78.89200       6.70101       4.25835       0.21405       0.38218      10.87500      19.98670      17.40520       0.72772       2.51783  
    17.73830       5.40313       5.45748       5.07517      70.91920       6.53184       4.41430       0.22452       0.35238       9.84375      23.76760      13.33040       0.72609       3.01718  
    11.63450       1.24609       5.70860       5.49201      79.74860       6.50086       4.19956       0.31066       0.38221      13.00000      22.16050       8.78567       0.75728       3.66469  
     5.80487      -3.34428       6.10358       6.21861      84.43480       6.10778       4.11377       0.40891       0.37100      14.65620      24.15030       7.18066       0.78507       4.18880  
373n809w                       37.31130     -80.93750     711.00000        32  
 tmp_max_ave   tmp_min_ave    tmp_max_sd    tmp_min_sd       pcp_ave        pcp_sd      pcp_skew       wet_dry       wet_wet      pcp_days       pcp_hhr       slr_ave       dew_ave       wnd_ave  
     3.78497      -5.14822       6.26094       6.58697      90.16120       5.58642       3.07613       0.50611       0.40652      18.21880      16.56990       7.72101       0.81255       4.64240  
     5.60745      -4.01970       6.17320       6.02758      89.48100       6.01242       3.14780       0.46597       0.40613      16.31250      14.89180      10.47460       0.80603       4.42440  
    10.20090      -0.28889       6.34262       6.01014     109.95100       6.92667       3.89412       0.46472       0.41824      18.15620      26.94890      14.34440       0.79106       4.18905  
    16.06010       4.43823       6.36232       5.61954     100.46100       5.89636       3.17281       0.41509       0.41604      16.75000      17.14070      18.56630       0.75142       3.82679  
    21.74940       8.44351       5.02996       5.15633      98.27390       5.45366       3.14963       0.38022       0.40858      16.75000      17.44650      21.81850       0.72947       3.11041  
    26.36540      12.75890       3.96028       3.97200      87.70080       5.51457       3.82836       0.37021       0.39592      15.31250      18.18130      24.08840       0.72257       2.70130  
    28.28520      14.84880       3.68112       3.43375      97.40480       6.35277       4.95777       0.32460       0.41129      15.50000      25.12250      23.85270       0.71881       2.47032  
    28.27640      13.97540       3.72921       3.46659      75.26900       6.56730       6.38314       0.25427       0.40394      12.68750      28.26410      21.55180       0.70573       2.29196  
    24.14910      10.28740       4.74556       4.69858      75.69660       6.38644       4.70693       0.22054       0.38525      11.43750      25.63680      17.46800       0.72747       2.56837  
    17.70450       5.37042       5.49717       5.28521      68.14140       6.06726       4.74887       0.25387       0.35260      10.81250      23.41500      13.30210       0.72419       3.07918  
    11.59850       1.26616       5.81179       5.67766      76.02190       5.90452       4.22607       0.32022       0.39906      13.31250      21.10780       8.76368       0.75756       3.76587  
     5.73455      -3.35536       6.20997       6.50799      83.23620       5.55702       3.93365       0.44820       0.39258      16.00000      20.18740       7.07456       0.79101       4.30954  
376n800w                       37.62360     -80.00000     430.00000        32  
 tmp_max_ave   tmp_min_ave    tmp_max_sd    tmp_min_sd       pcp_ave        pcp_sd      pcp_skew       wet_dry       wet_wet      pcp_days       pcp_hhr       slr_ave       dew_ave       wnd_ave  
     4.18840      -4.60831       5.90010       5.99163      84.57670       6.24671       3.37546       0.31720       0.35369      12.28120      17.63870       8.10586       0.77173       3.89924  
     5.98740      -3.66874       5.88964       5.39664      82.97190       6.49684       3.58341       0.34563       0.37532      12.15620      21.64020      11.05950       0.76769       3.75428  
    10.79810       0.17888       5.98378       5.32196     106.90700       7.58596       3.97010       0.36793       0.39394      14.43750      25.34120      15.02880       0.75885       3.62195  
    16.85130       5.02405       6.12413       5.06472      90.03840       6.22638       3.64137       0.36523       0.38616      14.00000      20.33940      19.32000       0.72684       3.42336  
    22.59670       9.27864       5.09086       4.49593      81.97780       5.37714       3.39395       0.30939       0.37723      14.00000      14.95670      22.19560       0.70900       2.81622  
    27.49460      13.55360       4.14883       3.79759      65.54550       5.00595       4.38035       0.26175       0.36264      11.37500      17.57020      24.63490       0.69511       2.52289  
    29.75000      15.93480       3.78267       3.21408      68.69900       5.01896       4.52073       0.27013       0.37879      12.37500      19.88700      24.14620       0.68583       2.33516  
    29.47580      14.99620       3.91532       3.33158      57.93970       6.88347      10.88100       0.21314       0.34202       9.59375      48.77170      21.93120       0.68047       2.16211  
    24.85980      11.28030       4.84195       4.33957      70.42510       6.82199       4.77103       0.17708       0.38542       9.00000      23.19530      17.75800       0.70829       2.35821  
    18.20790       6.01067       5.33409       4.70048      66.63750       6.42715       4.64256       0.18724       0.34686       8.46875      20.00770      13.48830       0.71606       2.73488  
    11.97820       1.77898       5.47505       5.07343      82.89810       7.72338       7.10809       0.26101       0.36311      10.84380      45.54000       8.89251       0.74414       3.20544  
     6.15194      -2.73685       5.77618       5.55071      82.68290       6.53022       4.28175       0.31126       0.36483      11.90620      25.43310       7.26314       0.75609       3.60453  
376n803w                       37.62360     -80.31250     842.00000        32  
 tmp_max_ave   tmp_min_ave    tmp_max_sd    tmp_min_sd       pcp_ave        pcp_sd      pcp_skew       wet_dry       wet_wet      pcp_days       pcp_hhr       slr_ave       dew_ave       wnd_ave  
     3.47642      -5.25998       6.05134       6.27543      88.73180       5.93047       2.99857       0.43381       0.37924      15.65620      13.73340       7.77197       0.80176       4.15601  
     5.28095      -4.23050       5.97831       5.62403      88.06050       6.50257       3.64346       0.40359       0.38646      14.31250      21.60050      10.64860       0.79450       3.96256  
    10.05020      -0.32662       6.09743       5.46677     111.23900       7.54509       4.08360       0.43290       0.40189      16.56250      27.41580      14.54520       0.77953       3.78398  
    16.04880       4.52747       6.22031       5.18280      97.43000       6.15315       3.20001       0.39394       0.40964      15.56250      18.07250      18.84340       0.74521       3.51342  
    21.80130       8.62380       5.06900       4.67721      90.44030       5.64895       3.48947       0.33939       0.39718      15.50000      18.86620      21.95610       0.72572       2.87025  
    26.61940      12.78840       4.04668       3.83537      75.45640       5.48101       4.51844       0.28962       0.37956      12.84380      21.52720      24.49880       0.71539       2.54695  
    28.74130      15.02630       3.69725       3.35054      79.43150       5.74520       4.99983       0.30325       0.38813      13.68750      24.30060      24.22090       0.70879       2.34646  
    28.59750      14.12030       3.81366       3.37546      65.49200       7.07556       9.85913       0.23876       0.35735      10.84380      47.71370      21.95940       0.70036       2.16316  
    24.13460      10.50620       4.77495       4.44561      71.69980       6.54258       4.52468       0.19040       0.37898       9.81250      24.40510      17.63710       0.72499       2.38449  
    17.52050       5.44340       5.40162       4.79370      68.58200       6.33321       4.41073       0.21797       0.36102       9.78125      20.11170      13.28850       0.72941       2.80706  
    11.36880       1.25122       5.62977       5.18662      83.01470       7.25687       6.44724       0.30000       0.37750      12.50000      40.98640       8.64781       0.75964       3.35331  
     5.53322      -3.29322       5.91708       5.80200      86.60660       6.36245       4.23523       0.39692       0.36910      14.56250      24.96690       6.99633       0.77702       3.83554  
376n806w                       37.62360     -80.62500     609.00000        32  
 tmp_max_ave   tmp_min_ave    tmp_max_sd    tmp_min_sd       pcp_ave        pcp_sd      pcp_skew       wet_dry       wet_wet      pcp_days       pcp_hhr       slr_ave       dew_ave       wnd_ave  
     3.06293      -5.64664       6.19280       6.51478      95.03840       5.65055       2.81708       0.51005       0.40909      18.56250      13.37770       7.39616       0.82542       4.32828  
     4.89116      -4.57509       6.08053       5.93044      95.30700       6.42869       3.47777       0.46667       0.41588      16.53120      20.93960      10.19480       0.81579       4.11968  
     9.62151      -0.64888       6.22743       5.62897     116.61900       7.38158       4.12109       0.48000       0.41554      18.50000      29.75300      14.04480       0.79788       3.92409  
    15.53690       4.09022       6.26889       5.39848     104.86000       6.01603       2.75109       0.42961       0.42883      17.12500      13.66940      18.37970       0.76281       3.59173  
    21.12370       8.05588       4.93775       5.01630     101.51500       5.98637       3.49780       0.37665       0.40410      16.78120      19.94340      21.71110       0.74220       2.93332  
    25.77850      12.25380       3.77381       4.01684      84.10070       5.67274       4.53859       0.33602       0.39093      14.46880      21.83300      24.36230       0.73318       2.58201  
    27.70090      14.36310       3.46358       3.53365      91.84140       6.36355       4.98136       0.31801       0.39787      14.68750      27.98050      24.14580       0.72963       2.36546  
    27.61470      13.49580       3.51900       3.47141      71.87440       6.99055       8.09736       0.24717       0.37265      11.65620      42.08830      21.96920       0.71747       2.19242  
    23.45560       9.92308       4.54414       4.66240      74.92160       6.37042       4.37877       0.22332       0.37322      10.96880      24.52830      17.48770       0.73963       2.44271  
    17.09770       4.97511       5.45712       5.08641      70.93500       6.18117       4.14980       0.25385       0.35380      10.68750      19.13470      13.07980       0.74122       2.88599  
    10.98950       0.91045       5.78951       5.35110      84.95910       6.68191       4.90596       0.32681       0.39644      14.03120      30.05400       8.42092       0.77379       3.48578  
     5.16673      -3.60543       6.07392       6.07515      92.23420       6.17256       4.19555       0.46925       0.39560      17.06250      23.28340       6.70607       0.79633       4.00597  
376n809w                       37.62360     -80.93750     486.00000        32  
 tmp_max_ave   tmp_min_ave    tmp_max_sd    tmp_min_sd       pcp_ave        pcp_sd      pcp_skew       wet_dry       wet_wet      pcp_days       pcp_hhr       slr_ave       dew_ave       wnd_ave  
     3.14743      -5.42462       6.28897       6.64156      99.97480       5.48220       2.74846       0.55966       0.42969      20.00000      13.82230       7.19318       0.83575       4.31154  
     5.03835      -4.32656       6.17706       6.09866     101.41700       6.37816       3.23130       0.48974       0.42274      17.59380      20.12370       9.94865       0.82719       4.11753  